
##########################################################################
#               Crystallographic Information Format file
#               Produced by PyCifRW module
#
#  This is a CIF file.  CIF has been adopted by the International
#  Union of Crystallography as the standard for data archiving and
#  transmission.
#
#  For information on this file format, follow the CIF links at
#  http://www.iucr.org
##########################################################################

data_image0

_cell_length_a                          11.9464
_cell_length_b                          11.9464
_cell_length_c                          11.9464
_cell_angle_alpha                       113.14
_cell_angle_beta                        113.14
_cell_angle_gamma                       113.14
_symmetry_space_group_name_H-M          'P 1'
_symmetry_int_tables_number             1
loop_
  _symmetry_equiv_pos_as_xyz
         'x, y, z' 
loop_
  _atom_site_label
  _atom_site_occupancy
  _atom_site_fract_x
  _atom_site_fract_y
  _atom_site_fract_z
  _atom_site_thermal_displace_type
  _atom_site_B_iso_or_equiv
  _atom_site_type_symbol
  _atom_site_charge
         C1        1.0000    0.68650   0.73210   0.99820   Biso      1.000     C          -0.388825           
         C2        1.0000    0.46980   0.85590   0.42690   Biso      1.000     C          -0.039395           
         C3        1.0000    0.68330   0.16920   0.65760   Biso      1.000     C          -0.064105           
         C4        1.0000    0.57310   0.53020   0.14410   Biso      1.000     C          -0.020071000000000002         
         C5        1.0000    0.34240   0.31670   0.83080   Biso      1.000     C          -0.052997           
         C6        1.0000    0.31350   0.26790   0.00180   Biso      1.000     C          -0.388826           
         C7        1.0000    0.65760   0.68330   0.16920   Biso      1.000     C          -0.052997           
         C8        1.0000    0.42690   0.46980   0.85590   Biso      1.000     C          -0.020071000000000002         
         C9        1.0000    0.00180   0.31350   0.26790   Biso      1.000     C          -0.387087           
         C10       1.0000    0.83080   0.34240   0.31670   Biso      1.000     C          -0.063201           
         C11       1.0000    0.14410   0.57310   0.53020   Biso      1.000     C          -0.031615           
         C12       1.0000    0.99820   0.68650   0.73210   Biso      1.000     C          -0.387087           
         C13       1.0000    0.16920   0.65760   0.68330   Biso      1.000     C          -0.063201           
         C14       1.0000    0.85590   0.42690   0.46980   Biso      1.000     C          -0.031615           
         C15       1.0000    0.53020   0.14410   0.57310   Biso      1.000     C          -0.039395           
         C16       1.0000    0.31670   0.83080   0.34240   Biso      1.000     C          -0.064105           
         C17       1.0000    0.26790   0.00180   0.31350   Biso      1.000     C          -0.340679           
         C18       1.0000    0.73210   0.99820   0.68650   Biso      1.000     C          -0.34067800000000004          
         H1        1.0000    0.76083   0.22774   0.63303   Biso      1.000     H          0.022139  
         H2        1.0000    0.16786   0.65450   0.49997   Biso      1.000     H          0.027533  
         H3        1.0000    0.40997   0.76913   0.87150   Biso      1.000     H          0.42091000000000006           
         H4        1.0000    0.12661   0.77958   0.84924   Biso      1.000     H          0.12862   
         H5        1.0000    0.68808   0.97438   0.74994   Biso      1.000     H          0.088517  
         H6        1.0000    0.44349   0.76090   0.43925   Biso      1.000     H          0.07657699999999999           
         H7        1.0000    0.83214   0.34550   0.50003   Biso      1.000     H          0.027533  
         H8        1.0000    0.49997   0.16786   0.65450   Biso      1.000     H          0.042376  
         H9        1.0000    0.15076   0.87339   0.22042   Biso      1.000     H          0.11489200000000001           
         H10       1.0000    0.12850   0.59003   0.23087   Biso      1.000     H          0.41943500000000006           
         H11       1.0000    0.75420   0.20856   0.24879   Biso      1.000     H          0.099561  
         H12       1.0000    0.97438   0.74994   0.68808   Biso      1.000     H          0.152699  
         H13       1.0000    0.74994   0.68808   0.97438   Biso      1.000     H          0.129663  
         H14       1.0000    0.63303   0.76083   0.22774   Biso      1.000     H          0.06618099999999999           
         H15       1.0000    0.43925   0.44349   0.76090   Biso      1.000     H          0.078439  
         H16       1.0000    0.20856   0.24879   0.75420   Biso      1.000     H          0.11011900000000001           
         H17       1.0000    0.65450   0.49997   0.16786   Biso      1.000     H          -0.008816           
         H18       1.0000    0.22042   0.15076   0.87339   Biso      1.000     H          0.14778   
         H19       1.0000    0.76090   0.43925   0.44349   Biso      1.000     H          0.08352000000000001           
         H20       1.0000    0.24879   0.75420   0.20856   Biso      1.000     H          0.08644600000000001           
         H21       1.0000    0.24580   0.79144   0.75121   Biso      1.000     H          0.099561  
         H22       1.0000    0.22774   0.63303   0.76083   Biso      1.000     H          0.028706  
         H23       1.0000    0.77226   0.36697   0.23917   Biso      1.000     H          0.028706  
         H24       1.0000    0.31192   0.02562   0.25006   Biso      1.000     H          0.088517  
         H25       1.0000    0.23917   0.77226   0.36697   Biso      1.000     H          0.022139  
         H26       1.0000    0.55651   0.23910   0.56075   Biso      1.000     H          0.07657699999999999           
         H27       1.0000    0.75121   0.24580   0.79144   Biso      1.000     H          0.08644500000000001           
         H28       1.0000    0.50003   0.83214   0.34550   Biso      1.000     H          0.042376  
         H29       1.0000    0.84924   0.12661   0.77958   Biso      1.000     H          0.11489200000000001           
         H30       1.0000    0.87150   0.40997   0.76913   Biso      1.000     H          0.41943500000000006           
         H31       1.0000    0.23910   0.56075   0.55651   Biso      1.000     H          0.08352000000000001           
         H32       1.0000    0.25006   0.31192   0.02562   Biso      1.000     H          0.129663  
         H33       1.0000    0.36697   0.23917   0.77226   Biso      1.000     H          0.06618099999999999           
         H34       1.0000    0.56075   0.55651   0.23910   Biso      1.000     H          0.078439  
         H35       1.0000    0.79144   0.75121   0.24580   Biso      1.000     H          0.11011900000000001           
         H36       1.0000    0.59003   0.23087   0.12850   Biso      1.000     H          0.42091000000000006           
         H37       1.0000    0.77958   0.84924   0.12661   Biso      1.000     H          0.14778   
         H38       1.0000    0.34550   0.50003   0.83214   Biso      1.000     H          -0.008817           
         H39       1.0000    0.87339   0.22042   0.15076   Biso      1.000     H          0.12862   
         H40       1.0000    0.02562   0.25006   0.31192   Biso      1.000     H          0.152699  
         N1        1.0000    0.58190   0.62080   0.00080   Biso      1.000     N          -0.110918           
         N2        1.0000    0.62080   0.00080   0.58190   Biso      1.000     N          -0.075059           
         N3        1.0000    0.99920   0.41810   0.37920   Biso      1.000     N          -0.08280499999999999          
         N4        1.0000    0.37920   0.99920   0.41810   Biso      1.000     N          -0.075059           
         N5        1.0000    0.00080   0.58190   0.62080   Biso      1.000     N          -0.082804           
         N6        1.0000    0.41810   0.37920   0.99920   Biso      1.000     N          -0.110918           
         O1        1.0000    0.69660   0.54470   0.63490   Biso      1.000     O          -0.848176           
         O2        1.0000    0.36510   0.30340   0.45530   Biso      1.000     O          -0.864554           
         O3        1.0000    0.19510   0.12850   0.49900   Biso      1.000     O          -0.74227  
         O4        1.0000    0.08680   0.07050   0.21320   Biso      1.000     O          -0.8671530000000001           
         O5        1.0000    0.87150   0.50100   0.80490   Biso      1.000     O          -0.674906           
         O6        1.0000    0.92950   0.78680   0.91320   Biso      1.000     O          -0.8413649999999999           
         O7        1.0000    0.07050   0.21320   0.08680   Biso      1.000     O          -0.8413649999999999           
         O8        1.0000    0.91320   0.92950   0.78680   Biso      1.000     O          -0.8671530000000001           
         O9        1.0000    0.30340   0.45530   0.36510   Biso      1.000     O          -0.848176           
         O10       1.0000    0.78680   0.91320   0.92950   Biso      1.000     O          -0.848841           
         O11       1.0000    0.50100   0.80490   0.87150   Biso      1.000     O          -0.682505           
         O12       1.0000    0.54470   0.63490   0.69660   Biso      1.000     O          -0.852833           
         O13       1.0000    0.45530   0.36510   0.30340   Biso      1.000     O          -0.852833           
         O14       1.0000    0.49900   0.19510   0.12850   Biso      1.000     O          -0.682505           
         O15       1.0000    0.21320   0.08680   0.07050   Biso      1.000     O          -0.848841           
         O16       1.0000    0.63490   0.69660   0.54470   Biso      1.000     O          -0.864554           
         O17       1.0000    0.80490   0.87150   0.50100   Biso      1.000     O          -0.74227  
         O18       1.0000    0.12850   0.49900   0.19510   Biso      1.000     O          -0.674906           
         P1        1.0000    0.22580   0.13470   0.38290   Biso      1.000     P          1.285483  
         P2        1.0000    0.77420   0.86530   0.61710   Biso      1.000     P          1.285482  
         P3        1.0000    0.61710   0.77420   0.86530   Biso      1.000     P          1.392189  
         P4        1.0000    0.13470   0.38290   0.22580   Biso      1.000     P          1.389159  
         P5        1.0000    0.38290   0.22580   0.13470   Biso      1.000     P          1.392189  
         P6        1.0000    0.86530   0.61710   0.77420   Biso      1.000     P          1.389159  
         Zr1       1.0000    0.00000   0.00000   0.00000   Biso      1.000     Zr          2.488507  
         Zr2       1.0000    0.50000   0.50000   0.50000   Biso      1.000     Zr          2.505963 