
##########################################################################
#               Crystallographic Information Format file
#               Produced by PyCifRW module
#
#  This is a CIF file.  CIF has been adopted by the International
#  Union of Crystallography as the standard for data archiving and
#  transmission.
#
#  For information on this file format, follow the CIF links at
#  http://www.iucr.org
##########################################################################

data_image0

_cell_length_a                          6.7186
_cell_length_b                          17.082
_cell_length_c                          17.352
_cell_angle_alpha                       90
_cell_angle_beta                        98.77
_cell_angle_gamma                       90
_symmetry_space_group_name_H-M          'P 1'
_symmetry_int_tables_number             1
loop_
  _symmetry_equiv_pos_as_xyz
         'x, y, z' 
loop_
  _atom_site_label
  _atom_site_occupancy
  _atom_site_fract_x
  _atom_site_fract_y
  _atom_site_fract_z
  _atom_site_thermal_displace_type
  _atom_site_B_iso_or_equiv
  _atom_site_type_symbol
  _atom_site_charge
         C1        1.0000    0.14130   0.64993   0.70283   Biso      1.000     C          0.202631  
         C2        1.0000    0.63850   0.70605   0.82041   Biso      1.000     C          -0.16448  
         C3        1.0000    0.35430   0.42390   0.60706   Biso      1.000     C          0.05393   
         C4        1.0000    0.17020   0.42653   0.55933   Biso      1.000     C          -0.214312           
         C5        1.0000    0.10120   0.49689   0.52395   Biso      1.000     C          0.066953  
         C6        1.0000    0.23050   0.56092   0.53664   Biso      1.000     C          -0.207655           
         C7        1.0000    0.41340   0.55385   0.58472   Biso      1.000     C          0.07140099999999999           
         C8        1.0000    0.59920   0.77445   0.69781   Biso      1.000     C          -0.12441400000000001          
         C9        1.0000    0.76870   0.51459   0.87216   Biso      1.000     C          0.030567  
         C10       1.0000    0.52880   0.49748   0.96038   Biso      1.000     C          0.05354299999999999           
         C11       1.0000    0.39670   0.47055   0.89642   Biso      1.000     C          -0.219594           
         C12       1.0000    0.45420   0.46736   0.82385   Biso      1.000     C          0.069781  
         C13       1.0000    0.59920   0.72555   0.19781   Biso      1.000     C          -0.12441400000000001          
         C14       1.0000    0.63850   0.79395   0.32041   Biso      1.000     C          -0.164479           
         C15       1.0000    0.33690   0.68813   0.72726   Biso      1.000     C          -0.026933           
         C16       1.0000    0.71970   0.51990   0.94592   Biso      1.000     C          -0.21916300000000002          
         C17       1.0000    0.45210   0.67121   0.79935   Biso      1.000     C          -0.111174           
         C18       1.0000    0.71350   0.75756   0.77015   Biso      1.000     C          -0.027431999999999998         
         C19       1.0000    0.41130   0.74011   0.67699   Biso      1.000     C          -0.158452           
         C20       1.0000    0.41130   0.75989   0.17699   Biso      1.000     C          -0.158452           
         C21       1.0000    0.45210   0.82879   0.29935   Biso      1.000     C          -0.111172           
         C22       1.0000    0.33690   0.81187   0.22726   Biso      1.000     C          -0.026933999999999996         
         C23       1.0000    0.14130   0.85007   0.20283   Biso      1.000     C          0.202632  
         C24       1.0000    0.35430   0.07610   0.10706   Biso      1.000     C          0.05393   
         C25       1.0000    0.17020   0.07347   0.05933   Biso      1.000     C          -0.21431399999999998          
         C26       1.0000    0.90850   0.79693   0.79361   Biso      1.000     C          0.20726599999999998           
         C27       1.0000    0.10120   0.00311   0.02395   Biso      1.000     C          0.066954  
         C28       1.0000    0.41340   0.94615   0.08472   Biso      1.000     C          0.071397  
         C29       1.0000    0.76870   0.98541   0.37216   Biso      1.000     C          0.030567  
         C30       1.0000    0.71970   0.98010   0.44592   Biso      1.000     C          -0.219164           
         C31       1.0000    0.52880   0.00252   0.46038   Biso      1.000     C          0.05354400000000001           
         C32       1.0000    0.39670   0.02945   0.39642   Biso      1.000     C          -0.219594           
         C33       1.0000    0.45420   0.03264   0.32385   Biso      1.000     C          0.06978200000000001           
         C34       1.0000    0.23050   0.93908   0.03664   Biso      1.000     C          -0.207652           
         C35       1.0000    0.54580   0.96736   0.67615   Biso      1.000     C          0.069775  
         C36       1.0000    0.60330   0.97055   0.60358   Biso      1.000     C          -0.21958899999999998          
         C37       1.0000    0.47120   0.99748   0.53962   Biso      1.000     C          0.053545  
         C38       1.0000    0.60330   0.52945   0.10358   Biso      1.000     C          -0.21959499999999998          
         C39       1.0000    0.54580   0.53264   0.17615   Biso      1.000     C          0.069781  
         C40       1.0000    0.76950   0.06092   0.96336   Biso      1.000     C          -0.207655           
         C41       1.0000    0.89880   0.99689   0.97605   Biso      1.000     C          0.066955  
         C42       1.0000    0.82980   0.92653   0.94067   Biso      1.000     C          -0.21431399999999998          
         C43       1.0000    0.64570   0.92390   0.89294   Biso      1.000     C          0.05393200000000001           
         C44       1.0000    0.47120   0.50252   0.03962   Biso      1.000     C          0.053546  
         C45       1.0000    0.85870   0.14993   0.79717   Biso      1.000     C          0.20263   
         C46       1.0000    0.54790   0.17121   0.70065   Biso      1.000     C          -0.111172           
         C47       1.0000    0.58870   0.24011   0.82301   Biso      1.000     C          -0.158452           
         C48       1.0000    0.09150   0.29693   0.70639   Biso      1.000     C          0.207267  
         C49       1.0000    0.28650   0.25756   0.72985   Biso      1.000     C          -0.027431999999999998         
         C50       1.0000    0.40080   0.27445   0.80219   Biso      1.000     C          -0.12441500000000001          
         C51       1.0000    0.36150   0.20605   0.67959   Biso      1.000     C          -0.16448  
         C52       1.0000    0.66310   0.18813   0.77274   Biso      1.000     C          -0.026936           
         C53       1.0000    0.28030   0.48010   0.05408   Biso      1.000     C          -0.219167           
         C54       1.0000    0.23130   0.48541   0.12784   Biso      1.000     C          0.030570999999999997          
         C55       1.0000    0.58660   0.44615   0.41528   Biso      1.000     C          0.071398  
         C56       1.0000    0.28030   0.01990   0.55408   Biso      1.000     C          -0.21916599999999997          
         C57       1.0000    0.23130   0.01459   0.62784   Biso      1.000     C          0.030570999999999997          
         C58       1.0000    0.58660   0.05385   0.91528   Biso      1.000     C          0.07140099999999999           
         C59       1.0000    0.36150   0.29395   0.17959   Biso      1.000     C          -0.16448  
         C60       1.0000    0.40080   0.22555   0.30219   Biso      1.000     C          -0.12441300000000001          
         C61       1.0000    0.28650   0.24244   0.22985   Biso      1.000     C          -0.027431999999999998         
         C62       1.0000    0.09150   0.20307   0.20639   Biso      1.000     C          0.20726999999999998           
         C63       1.0000    0.58870   0.25989   0.32301   Biso      1.000     C          -0.158452           
         C64       1.0000    0.54790   0.32879   0.20065   Biso      1.000     C          -0.11117300000000001          
         C65       1.0000    0.66310   0.31187   0.27274   Biso      1.000     C          -0.026933999999999996         
         C66       1.0000    0.85870   0.35007   0.29717   Biso      1.000     C          0.20263   
         C67       1.0000    0.64570   0.57610   0.39294   Biso      1.000     C          0.05393   
         C68       1.0000    0.82980   0.57347   0.44067   Biso      1.000     C          -0.21431399999999998          
         C69       1.0000    0.89880   0.50311   0.47605   Biso      1.000     C          0.066953  
         C70       1.0000    0.76950   0.43908   0.46336   Biso      1.000     C          -0.207652           
         C71       1.0000    0.90850   0.70307   0.29361   Biso      1.000     C          0.20726999999999998           
         C72       1.0000    0.71350   0.74244   0.27015   Biso      1.000     C          -0.027433           
         H1        1.0000    0.97296   0.21533   0.61824   Biso      1.000     H          0.302413  
         H2        1.0000    0.65000   0.80940   0.66290   Biso      1.000     H          0.103622  
         H3        1.0000    0.40230   0.63570   0.83400   Biso      1.000     H          0.10808499999999999           
         H4        1.0000    0.71560   0.69460   0.86970   Biso      1.000     H          0.085397  
         H5        1.0000    0.33310   0.75220   0.62810   Biso      1.000     H          0.094485  
         H6        1.0000    0.18380   0.03890   0.51260   Biso      1.000     H          0.108553  
         H7        1.0000    0.97296   0.28467   0.11824   Biso      1.000     H          0.302415  
         H8        1.0000    0.64070   0.94960   0.71880   Biso      1.000     H          0.07943099999999999           
         H9        1.0000    0.73480   0.95420   0.59700   Biso      1.000     H          0.110527  
         H10       1.0000    0.39800   0.37560   0.63090   Biso      1.000     H          0.07689299999999999           
         H11       1.0000    0.10030   0.03010   0.63600   Biso      1.000     H          0.07531   
         H12       1.0000    0.50060   0.09820   0.90770   Biso      1.000     H          0.07097200000000001           
         H13       1.0000    0.80720   0.10960   0.98780   Biso      1.000     H          0.10205499999999999           
         H14       1.0000    0.90940   0.88050   0.94940   Biso      1.000     H          0.104217  
         H15       1.0000    0.60200   0.87560   0.86910   Biso      1.000     H          0.076892  
         H16       1.0000    0.59770   0.13570   0.66600   Biso      1.000     H          0.10808499999999999           
         H17       1.0000    0.66690   0.25220   0.87190   Biso      1.000     H          0.094484  
         H18       1.0000    0.35000   0.30940   0.83710   Biso      1.000     H          0.103622  
         H19       1.0000    0.28440   0.19460   0.63030   Biso      1.000     H          0.085396  
         H20       1.0000    0.96324   0.27093   0.38971   Biso      1.000     H          0.303161  
         H21       1.0000    0.09060   0.38050   0.55060   Biso      1.000     H          0.104217  
         H22       1.0000    0.02704   0.78467   0.38176   Biso      1.000     H          0.302415  
         H23       1.0000    0.49940   0.59820   0.59230   Biso      1.000     H          0.070971  
         H24       1.0000    0.49940   0.90180   0.09230   Biso      1.000     H          0.07097200000000001           
         H25       1.0000    0.89970   0.96990   0.36400   Biso      1.000     H          0.075311  
         H26       1.0000    0.19280   0.60960   0.51220   Biso      1.000     H          0.10205499999999999           
         H27       1.0000    0.26520   0.04580   0.40300   Biso      1.000     H          0.110528  
         H28       1.0000    0.35930   0.05040   0.28120   Biso      1.000     H          0.07943099999999999           
         H29       1.0000    0.02704   0.71533   0.88176   Biso      1.000     H          0.302413  
         H30       1.0000    0.03676   0.72907   0.61029   Biso      1.000     H          0.30316   
         H31       1.0000    0.28440   0.30540   0.13030   Biso      1.000     H          0.085397  
         H32       1.0000    0.35000   0.19060   0.33710   Biso      1.000     H          0.103622  
         H33       1.0000    0.66690   0.24780   0.37190   Biso      1.000     H          0.094484  
         H34       1.0000    0.59770   0.36430   0.16600   Biso      1.000     H          0.10808499999999999           
         H35       1.0000    0.60200   0.62440   0.36910   Biso      1.000     H          0.07689299999999999           
         H36       1.0000    0.90940   0.61950   0.44940   Biso      1.000     H          0.104217  
         H37       1.0000    0.80720   0.39040   0.48780   Biso      1.000     H          0.10205499999999999           
         H38       1.0000    0.50060   0.40180   0.40770   Biso      1.000     H          0.07097300000000001           
         H39       1.0000    0.10030   0.46990   0.13600   Biso      1.000     H          0.07531   
         H40       1.0000    0.18380   0.46110   0.01260   Biso      1.000     H          0.108554  
         H41       1.0000    0.73480   0.54580   0.09700   Biso      1.000     H          0.110528  
         H42       1.0000    0.64070   0.55040   0.21880   Biso      1.000     H          0.079432  
         H43       1.0000    0.19280   0.89040   0.01220   Biso      1.000     H          0.10205499999999999           
         H44       1.0000    0.09060   0.11950   0.05060   Biso      1.000     H          0.104217  
         H45       1.0000    0.81620   0.96110   0.48740   Biso      1.000     H          0.108554  
         H46       1.0000    0.71560   0.80540   0.36970   Biso      1.000     H          0.085396  
         H47       1.0000    0.39800   0.12440   0.13090   Biso      1.000     H          0.07689299999999999           
         H48       1.0000    0.65000   0.69060   0.16290   Biso      1.000     H          0.103623  
         H49       1.0000    0.26520   0.45420   0.90300   Biso      1.000     H          0.110528  
         H50       1.0000    0.33310   0.74780   0.12810   Biso      1.000     H          0.094484  
         H51       1.0000    0.40230   0.86430   0.33400   Biso      1.000     H          0.10808499999999999           
         H52       1.0000    0.35930   0.44960   0.78120   Biso      1.000     H          0.079432  
         H53       1.0000    0.89970   0.53010   0.86400   Biso      1.000     H          0.075311  
         H54       1.0000    0.03676   0.77093   0.11029   Biso      1.000     H          0.303161  
         H55       1.0000    0.96324   0.22907   0.88971   Biso      1.000     H          0.303161  
         H56       1.0000    0.81620   0.53890   0.98740   Biso      1.000     H          0.108554  
         N1        1.0000    0.96080   0.63557   0.26411   Biso      1.000     N          -0.261812           
         N2        1.0000    0.05010   0.72891   0.35149   Biso      1.000     N          -0.184271           
         N3        1.0000    0.19630   0.67532   0.35811   Biso      1.000     N          -0.10466500000000001          
         N4        1.0000    0.14150   0.62003   0.30587   Biso      1.000     N          -0.012941           
         N5        1.0000    0.07950   0.91476   0.23480   Biso      1.000     N          -0.257875           
         N6        1.0000    0.36200   0.51188   0.18944   Biso      1.000     N          -0.263131           
         N7        1.0000    0.63800   0.48812   0.81056   Biso      1.000     N          -0.263131           
         N8        1.0000    0.52550   0.98680   0.87879   Biso      1.000     N          -0.24641500000000002          
         N9        1.0000    0.09950   0.07083   0.80878   Biso      1.000     N          -0.009825           
         N10       1.0000    0.14450   0.12392   0.86381   Biso      1.000     N          -0.078711           
         N11       1.0000    0.99400   0.17526   0.85766   Biso      1.000     N          -0.176315           
         N12       1.0000    0.92050   0.08524   0.76520   Biso      1.000     N          -0.257852           
         N13       1.0000    0.85850   0.37997   0.69413   Biso      1.000     N          -0.013003           
         N14       1.0000    0.80370   0.32468   0.64189   Biso      1.000     N          -0.104648           
         N15       1.0000    0.94990   0.27109   0.64851   Biso      1.000     N          -0.184255           
         N16       1.0000    0.03920   0.36443   0.73589   Biso      1.000     N          -0.261784           
         N17       1.0000    0.36200   0.98812   0.68944   Biso      1.000     N          -0.26313200000000003          
         N18       1.0000    0.52550   0.51320   0.37879   Biso      1.000     N          -0.246416           
         N19       1.0000    0.14450   0.37608   0.36381   Biso      1.000     N          -0.078748           
         N20       1.0000    0.99400   0.32474   0.35766   Biso      1.000     N          -0.17631  
         N21       1.0000    0.47450   0.48680   0.62121   Biso      1.000     N          -0.24641799999999997          
         N22       1.0000    0.90050   0.57083   0.69122   Biso      1.000     N          -0.009826999999999999         
         N23       1.0000    0.85550   0.62392   0.63619   Biso      1.000     N          -0.078709           
         N24       1.0000    0.00600   0.67526   0.64234   Biso      1.000     N          -0.176314           
         N25       1.0000    0.07950   0.58524   0.73480   Biso      1.000     N          -0.257853           
         N26       1.0000    0.14150   0.87997   0.80587   Biso      1.000     N          -0.013000999999999999         
         N27       1.0000    0.19630   0.82468   0.85811   Biso      1.000     N          -0.10465  
         N28       1.0000    0.05010   0.77109   0.85149   Biso      1.000     N          -0.184256           
         N29       1.0000    0.96080   0.86443   0.76411   Biso      1.000     N          -0.261783           
         N30       1.0000    0.09950   0.42917   0.30878   Biso      1.000     N          -0.009783           
         N31       1.0000    0.63800   0.01188   0.31056   Biso      1.000     N          -0.26313200000000003          
         N32       1.0000    0.90050   0.92917   0.19122   Biso      1.000     N          -0.009798000000000001         
         N33       1.0000    0.85550   0.87608   0.13619   Biso      1.000     N          -0.07871399999999999          
         N34       1.0000    0.00600   0.82474   0.14234   Biso      1.000     N          -0.176315           
         N35       1.0000    0.03920   0.13557   0.23589   Biso      1.000     N          -0.26181  
         N36       1.0000    0.94990   0.22891   0.14851   Biso      1.000     N          -0.184271           
         N37       1.0000    0.80370   0.17532   0.14189   Biso      1.000     N          -0.10466800000000001          
         N38       1.0000    0.85850   0.12003   0.19413   Biso      1.000     N          -0.01294  
         N39       1.0000    0.92050   0.41476   0.26520   Biso      1.000     N          -0.257858           
         N40       1.0000    0.47450   0.01320   0.12121   Biso      1.000     N          -0.24641300000000002          
         Zn1       1.0000    0.27804   0.98169   0.79612   Biso      1.000     Zn          0.588353  
         Zn2       1.0000    0.72196   0.01831   0.20388   Biso      1.000     Zn          0.5883430000000001  
         Zn3       1.0000    0.72196   0.48169   0.70388   Biso      1.000     Zn          0.588356  
         Zn4       1.0000    0.27804   0.51831   0.29612   Biso      1.000     Zn          0.5883430000000001 