
##########################################################################
#               Crystallographic Information Format file
#               Produced by PyCifRW module
#
#  This is a CIF file.  CIF has been adopted by the International
#  Union of Crystallography as the standard for data archiving and
#  transmission.
#
#  For information on this file format, follow the CIF links at
#  http://www.iucr.org
##########################################################################

data_image0

_cell_length_a                          7.247
_cell_length_b                          10.718
_cell_length_c                          11.545
_cell_angle_alpha                       90
_cell_angle_beta                        90
_cell_angle_gamma                       90
_symmetry_space_group_name_H-M          'P 1'
_symmetry_int_tables_number             1
loop_
  _symmetry_equiv_pos_as_xyz
         'x, y, z' 
loop_
  _atom_site_label
  _atom_site_occupancy
  _atom_site_fract_x
  _atom_site_fract_y
  _atom_site_fract_z
  _atom_site_thermal_displace_type
  _atom_site_B_iso_or_equiv
  _atom_site_type_symbol
  _atom_site_charge
         C1        1.0000    0.57100   0.28200   0.69500   Biso      1.000     C          0.079049  
         C2        1.0000    0.20000   0.56500   0.23200   Biso      1.000     C          -0.28424499999999997          
         C3        1.0000    0.83800   0.97600   0.67800   Biso      1.000     C          0.6320859999999999  
         C4        1.0000    0.70000   0.93500   0.76800   Biso      1.000     C          -0.283798           
         C5        1.0000    0.56600   0.83200   0.71100   Biso      1.000     C          -0.17974400000000001          
         C6        1.0000    0.42900   0.78200   0.80500   Biso      1.000     C          0.074148  
         C7        1.0000    0.53000   0.71400   0.89900   Biso      1.000     C          0.565455  
         C8        1.0000    0.33800   0.52400   0.32200   Biso      1.000     C          0.6338189999999999  
         C9        1.0000    0.03000   0.78600   0.10100   Biso      1.000     C          0.5691229999999999  
         C10       1.0000    0.47000   0.21400   0.60100   Biso      1.000     C          0.5478350000000001  
         C11       1.0000    0.43400   0.33200   0.78900   Biso      1.000     C          -0.175572           
         C12       1.0000    0.30000   0.43500   0.73200   Biso      1.000     C          -0.281185           
         C13       1.0000    0.16200   0.47600   0.82200   Biso      1.000     C          0.640228  
         C14       1.0000    0.66200   0.02400   0.17800   Biso      1.000     C          0.6448010000000001  
         C15       1.0000    0.80000   0.06500   0.26800   Biso      1.000     C          -0.28697  
         C16       1.0000    0.93400   0.16800   0.21100   Biso      1.000     C          -0.17364100000000002          
         C17       1.0000    0.07100   0.21800   0.30500   Biso      1.000     C          0.082639  
         C18       1.0000    0.97000   0.28600   0.39900   Biso      1.000     C          0.560373  
         C19       1.0000    0.06600   0.66800   0.28900   Biso      1.000     C          -0.178953           
         C20       1.0000    0.92900   0.71800   0.19500   Biso      1.000     C          0.073269  
         Cd1       1.0000    0.11120   0.06610   0.53990   Biso      1.000     Cd          0.8976280000000001  
         Cd2       1.0000    0.38880   0.93390   0.03990   Biso      1.000     Cd          0.9765379999999999  
         Cd3       1.0000    0.61120   0.43390   0.46010   Biso      1.000     Cd          0.9089860000000001  
         Cd4       1.0000    0.88880   0.56610   0.96010   Biso      1.000     Cd          0.9830120000000001  
         H1        1.0000    0.33555   0.71112   0.76050   Biso      1.000     H          0.107353  
         H2        1.0000    0.77559   0.89263   0.84515   Biso      1.000     H          0.12166600000000001           
         H3        1.0000    0.83555   0.78888   0.23950   Biso      1.000     H          0.10896700000000001           
         H4        1.0000    0.15227   0.74861   0.32389   Biso      1.000     H          0.094498  
         H5        1.0000    0.27559   0.60737   0.15485   Biso      1.000     H          0.12150999999999999           
         H6        1.0000    0.11460   0.48170   0.20205   Biso      1.000     H          0.11663599999999999           
         H7        1.0000    0.66445   0.21112   0.73950   Biso      1.000     H          0.100273  
         H8        1.0000    0.51532   0.37612   0.86294   Biso      1.000     H          0.101227  
         H9        1.0000    0.34773   0.25139   0.82389   Biso      1.000     H          0.11068399999999999           
         H10       1.0000    0.22441   0.39263   0.65485   Biso      1.000     H          0.129883  
         H11       1.0000    0.38540   0.51830   0.70205   Biso      1.000     H          0.11210099999999999           
         H12       1.0000    0.61460   0.01830   0.79795   Biso      1.000     H          0.116459  
         H13       1.0000    0.01532   0.12388   0.13706   Biso      1.000     H          0.098098  
         H14       1.0000    0.98468   0.62388   0.36294   Biso      1.000     H          0.100256  
         H15       1.0000    0.88540   0.98170   0.29795   Biso      1.000     H          0.11146099999999999           
         H16       1.0000    0.19398   0.03103   0.32106   Biso      1.000     H          0.295614  
         H17       1.0000    0.27316   0.15209   0.43345   Biso      1.000     H          0.26400100000000004           
         H18       1.0000    0.16088   0.87004   0.84160   Biso      1.000     H          0.33334   
         H19       1.0000    0.37199   0.94685   0.91291   Biso      1.000     H          0.190118  
         H20       1.0000    0.87199   0.55315   0.08709   Biso      1.000     H          0.19      
         H21       1.0000    0.66088   0.62996   0.15840   Biso      1.000     H          0.333342  
         H22       1.0000    0.65227   0.75139   0.67611   Biso      1.000     H          0.095291  
         H23       1.0000    0.48468   0.87612   0.63706   Biso      1.000     H          0.100136  
         H24       1.0000    0.64562   0.47251   0.64141   Biso      1.000     H          0.262     
         H25       1.0000    0.72441   0.10737   0.34515   Biso      1.000     H          0.136272  
         H26       1.0000    0.16445   0.28888   0.26050   Biso      1.000     H          0.086934  
         H27       1.0000    0.82151   0.34438   0.60409   Biso      1.000     H          0.304102  
         H28       1.0000    0.84773   0.24861   0.17611   Biso      1.000     H          0.11320699999999999           
         N1        1.0000    0.31200   0.87300   0.85700   Biso      1.000     N          -0.611808           
         N2        1.0000    0.68800   0.37300   0.64300   Biso      1.000     N          -0.5952109999999999           
         N3        1.0000    0.18800   0.12700   0.35700   Biso      1.000     N          -0.5973149999999999           
         N4        1.0000    0.81200   0.62700   0.14300   Biso      1.000     N          -0.612391           
         O1        1.0000    0.18100   0.46200   0.92600   Biso      1.000     O          -0.542821           
         O2        1.0000    0.63400   0.61800   0.86300   Biso      1.000     O          -0.5854159999999999           
         O3        1.0000    0.53100   0.74900   0.00300   Biso      1.000     O          -0.5252220000000001           
         O4        1.0000    0.03100   0.75100   0.99700   Biso      1.000     O          -0.523749           
         O5        1.0000    0.13400   0.88200   0.13700   Biso      1.000     O          -0.590267           
         O6        1.0000    0.47900   0.45800   0.28600   Biso      1.000     O          -0.597003           
         O7        1.0000    0.68100   0.03800   0.07400   Biso      1.000     O          -0.543326           
         O8        1.0000    0.52100   0.95800   0.21400   Biso      1.000     O          -0.6013029999999999           
         O9        1.0000    0.81900   0.96200   0.57400   Biso      1.000     O          -0.547317           
         O10       1.0000    0.86600   0.38200   0.36300   Biso      1.000     O          -0.5706760000000001           
         O11       1.0000    0.96900   0.25100   0.50300   Biso      1.000     O          -0.512213           
         O12       1.0000    0.46900   0.24900   0.49700   Biso      1.000     O          -0.5008560000000001           
         O13       1.0000    0.36600   0.11800   0.63700   Biso      1.000     O          -0.57014  
         O14       1.0000    0.02100   0.54200   0.78600   Biso      1.000     O          -0.598601           
         O15       1.0000    0.31900   0.53800   0.42600   Biso      1.000     O          -0.552524           
         O16       1.0000    0.97900   0.04200   0.71400   Biso      1.000     O          -0.602151 