
##########################################################################
#               Crystallographic Information Format file
#               Produced by PyCifRW module
#
#  This is a CIF file.  CIF has been adopted by the International
#  Union of Crystallography as the standard for data archiving and
#  transmission.
#
#  For information on this file format, follow the CIF links at
#  http://www.iucr.org
##########################################################################

data_image0

_cell_length_a                          17.437
_cell_length_b                          6.7475
_cell_length_c                          12.1541
_cell_angle_alpha                       90
_cell_angle_beta                        90
_cell_angle_gamma                       90
_symmetry_space_group_name_H-M          'P 1'
_symmetry_int_tables_number             1
loop_
  _symmetry_equiv_pos_as_xyz
         'x, y, z' 
loop_
  _atom_site_label
  _atom_site_occupancy
  _atom_site_fract_x
  _atom_site_fract_y
  _atom_site_fract_z
  _atom_site_thermal_displace_type
  _atom_site_B_iso_or_equiv
  _atom_site_type_symbol
  _atom_site_charge
         C1        1.0000    0.22605   0.42740   0.80050   Biso      1.000     C          -0.100814           
         C2        1.0000    0.27395   0.92740   0.30050   Biso      1.000     C          -0.100814           
         C3        1.0000    0.22605   0.07260   0.80050   Biso      1.000     C          -0.100815           
         C4        1.0000    0.27395   0.57260   0.30050   Biso      1.000     C          -0.100814           
         C5        1.0000    0.38238   0.75000   0.38920   Biso      1.000     C          0.62025   
         C6        1.0000    0.72605   0.07260   0.69950   Biso      1.000     C          -0.100814           
         C7        1.0000    0.77395   0.92740   0.19950   Biso      1.000     C          -0.100815           
         C8        1.0000    0.82814   0.25000   0.79140   Biso      1.000     C          -0.039519           
         C9        1.0000    0.67186   0.75000   0.29140   Biso      1.000     C          -0.039519           
         C10       1.0000    0.17186   0.75000   0.20860   Biso      1.000     C          -0.03952  
         C11       1.0000    0.77395   0.57260   0.19950   Biso      1.000     C          -0.100814           
         C12       1.0000    0.32814   0.25000   0.70860   Biso      1.000     C          -0.039519           
         C13       1.0000    0.60093   0.75000   0.36000   Biso      1.000     C          0.6290720000000001  
         C14       1.0000    0.10093   0.75000   0.14000   Biso      1.000     C          0.6290720000000001  
         C15       1.0000    0.39907   0.25000   0.64000   Biso      1.000     C          0.6290720000000001  
         C16       1.0000    0.69218   0.25000   0.67120   Biso      1.000     C          -0.025336           
         C17       1.0000    0.80782   0.75000   0.17120   Biso      1.000     C          -0.025335           
         C18       1.0000    0.30782   0.75000   0.32880   Biso      1.000     C          -0.025335           
         C19       1.0000    0.19218   0.25000   0.82880   Biso      1.000     C          -0.025335           
         C20       1.0000    0.61762   0.25000   0.61080   Biso      1.000     C          0.62025   
         C21       1.0000    0.88238   0.75000   0.11080   Biso      1.000     C          0.62025   
         C22       1.0000    0.89907   0.25000   0.86000   Biso      1.000     C          0.6290720000000001  
         C23       1.0000    0.72605   0.42740   0.69950   Biso      1.000     C          -0.100813           
         C24       1.0000    0.11762   0.25000   0.88920   Biso      1.000     C          0.62025   
         C25       1.0000    0.29127   0.42880   0.73490   Biso      1.000     C          -0.09583  
         C26       1.0000    0.70873   0.92880   0.26510   Biso      1.000     C          -0.095829           
         C27       1.0000    0.79127   0.07120   0.76510   Biso      1.000     C          -0.095829           
         C28       1.0000    0.20873   0.57120   0.23490   Biso      1.000     C          -0.095829           
         C29       1.0000    0.29127   0.07120   0.73490   Biso      1.000     C          -0.095829           
         C30       1.0000    0.20873   0.92880   0.23490   Biso      1.000     C          -0.095829           
         C31       1.0000    0.70873   0.57120   0.26510   Biso      1.000     C          -0.09583  
         C32       1.0000    0.79127   0.42880   0.76510   Biso      1.000     C          -0.09583  
         Ga1       1.0000    0.50000   0.50000   0.50000   Biso      1.000     Ga          1.468389  
         Ga2       1.0000    0.00000   0.50000   0.00000   Biso      1.000     Ga          1.468392  
         Ga3       1.0000    0.50000   0.00000   0.50000   Biso      1.000     Ga          1.468391  
         Ga4       1.0000    0.00000   0.00000   0.00000   Biso      1.000     Ga          1.468389  
         H1        1.0000    0.70210   0.93530   0.67040   Biso      1.000     H          0.118503  
         H2        1.0000    0.79790   0.06470   0.17040   Biso      1.000     H          0.118503  
         H3        1.0000    0.50640   0.75000   0.65568   Biso      1.000     H          0.422965  
         H4        1.0000    0.81190   0.56610   0.79890   Biso      1.000     H          0.11726400000000001           
         H5        1.0000    0.49360   0.25000   0.34432   Biso      1.000     H          0.422965  
         H6        1.0000    0.00640   0.75000   0.84432   Biso      1.000     H          0.422965  
         H7        1.0000    0.20210   0.56470   0.82960   Biso      1.000     H          0.118503  
         H8        1.0000    0.29790   0.43530   0.32960   Biso      1.000     H          0.118503  
         H9        1.0000    0.99360   0.25000   0.15568   Biso      1.000     H          0.422965  
         H10       1.0000    0.29790   0.06470   0.32960   Biso      1.000     H          0.118503  
         H11       1.0000    0.20210   0.93530   0.82960   Biso      1.000     H          0.118503  
         H12       1.0000    0.68810   0.43390   0.29890   Biso      1.000     H          0.11726400000000001           
         H13       1.0000    0.31190   0.93390   0.70110   Biso      1.000     H          0.11726400000000001           
         H14       1.0000    0.18810   0.43390   0.20110   Biso      1.000     H          0.11726400000000001           
         H15       1.0000    0.31190   0.56610   0.70110   Biso      1.000     H          0.11726400000000001           
         H16       1.0000    0.18810   0.06610   0.20110   Biso      1.000     H          0.11726400000000001           
         H17       1.0000    0.68810   0.06610   0.29890   Biso      1.000     H          0.11726400000000001           
         H18       1.0000    0.70210   0.56470   0.67040   Biso      1.000     H          0.118503  
         H19       1.0000    0.79790   0.43530   0.17040   Biso      1.000     H          0.118503  
         H20       1.0000    0.81190   0.93390   0.79890   Biso      1.000     H          0.11726400000000001           
         O1        1.0000    0.57368   0.91700   0.38584   Biso      1.000     O          -0.57057  
         O2        1.0000    0.58949   0.08260   0.58860   Biso      1.000     O          -0.566571           
         O3        1.0000    0.07368   0.58300   0.11416   Biso      1.000     O          -0.57057  
         O4        1.0000    0.42632   0.41700   0.61416   Biso      1.000     O          -0.57057  
         O5        1.0000    0.07368   0.91700   0.11416   Biso      1.000     O          -0.570569           
         O6        1.0000    0.42632   0.08300   0.61416   Biso      1.000     O          -0.57057  
         O7        1.0000    0.92632   0.41700   0.88584   Biso      1.000     O          -0.57057  
         O8        1.0000    0.57368   0.58300   0.38584   Biso      1.000     O          -0.57057  
         O9        1.0000    0.91051   0.91740   0.08860   Biso      1.000     O          -0.56657  
         O10       1.0000    0.58949   0.41740   0.58860   Biso      1.000     O          -0.56657  
         O11       1.0000    0.08949   0.41740   0.91140   Biso      1.000     O          -0.566571           
         O12       1.0000    0.41051   0.91740   0.41140   Biso      1.000     O          -0.566571           
         O13       1.0000    0.08949   0.08260   0.91140   Biso      1.000     O          -0.56657  
         O14       1.0000    0.49360   0.25000   0.42660   Biso      1.000     O          -0.8797879999999999           
         O15       1.0000    0.00640   0.75000   0.92660   Biso      1.000     O          -0.8797879999999999           
         O16       1.0000    0.50640   0.75000   0.57340   Biso      1.000     O          -0.8797879999999999           
         O17       1.0000    0.99360   0.25000   0.07340   Biso      1.000     O          -0.8797879999999999           
         O18       1.0000    0.91051   0.58260   0.08860   Biso      1.000     O          -0.566571           
         O19       1.0000    0.41051   0.58260   0.41140   Biso      1.000     O          -0.56657  
         O20       1.0000    0.92632   0.08300   0.88584   Biso      1.000     O          -0.57057 