
##########################################################################
#               Crystallographic Information Format file
#               Produced by PyCifRW module
#
#  This is a CIF file.  CIF has been adopted by the International
#  Union of Crystallography as the standard for data archiving and
#  transmission.
#
#  For information on this file format, follow the CIF links at
#  http://www.iucr.org
##########################################################################

data_image0

_cell_length_a                          16.243
_cell_length_b                          6.6352
_cell_length_c                          13.4943
_cell_angle_alpha                       90
_cell_angle_beta                        90
_cell_angle_gamma                       90
_symmetry_space_group_name_H-M          'P 1'
_symmetry_int_tables_number             1
loop_
  _symmetry_equiv_pos_as_xyz
         'x, y, z' 
loop_
  _atom_site_label
  _atom_site_occupancy
  _atom_site_fract_x
  _atom_site_fract_y
  _atom_site_fract_z
  _atom_site_thermal_displace_type
  _atom_site_B_iso_or_equiv
  _atom_site_type_symbol
  _atom_site_charge
         Al1       1.0000    0.99972   0.00066   0.00069   Biso      1.000     Al          1.735231  
         Al2       1.0000    0.49926   0.99396   0.50124   Biso      1.000     Al          1.727684  
         Al3       1.0000    0.99984   0.49480   0.00083   Biso      1.000     Al          1.733927  
         Al4       1.0000    0.49959   0.49431   0.50047   Biso      1.000     Al          1.728444  
         C1        1.0000    0.21149   0.06495   0.77720   Biso      1.000     C          -0.094735           
         C2        1.0000    0.21167   0.42811   0.77741   Biso      1.000     C          -0.09561  
         C3        1.0000    0.28714   0.56392   0.27742   Biso      1.000     C          -0.09919  
         C4        1.0000    0.21874   0.56595   0.21328   Biso      1.000     C          -0.096101           
         C5        1.0000    0.17582   0.24632   0.81010   Biso      1.000     C          -0.034531           
         C6        1.0000    0.31725   0.24634   0.68271   Biso      1.000     C          -0.029835           
         C7        1.0000    0.10438   0.24604   0.88136   Biso      1.000     C          0.639079  
         C8        1.0000    0.39026   0.24548   0.61385   Biso      1.000     C          0.636565  
         C9        1.0000    0.32259   0.74469   0.31177   Biso      1.000     C          -0.034438           
         C10       1.0000    0.18336   0.74873   0.18124   Biso      1.000     C          -0.031681           
         C11       1.0000    0.39330   0.74345   0.38392   Biso      1.000     C          0.638457  
         C12       1.0000    0.11028   0.75045   0.11266   Biso      1.000     C          0.631316  
         C13       1.0000    0.82200   0.74633   0.18969   Biso      1.000     C          -0.030472           
         C14       1.0000    0.68157   0.74633   0.31880   Biso      1.000     C          -0.034151           
         C15       1.0000    0.89300   0.74606   0.11780   Biso      1.000     C          0.631504  
         C16       1.0000    0.60863   0.74547   0.38784   Biso      1.000     C          0.635672  
         C17       1.0000    0.67806   0.24465   0.68769   Biso      1.000     C          -0.031738           
         C18       1.0000    0.81737   0.24876   0.81858   Biso      1.000     C          -0.033817           
         C19       1.0000    0.60670   0.24353   0.61631   Biso      1.000     C          0.636686  
         C20       1.0000    0.89014   0.25043   0.88801   Biso      1.000     C          0.636703  
         C21       1.0000    0.78204   0.06600   0.78627   Biso      1.000     C          -0.094002           
         C22       1.0000    0.71367   0.06398   0.72200   Biso      1.000     C          -0.098867           
         C23       1.0000    0.28118   0.42801   0.71486   Biso      1.000     C          -0.097523           
         C24       1.0000    0.21978   0.92918   0.21419   Biso      1.000     C          -0.097924           
         C25       1.0000    0.78101   0.42916   0.78532   Biso      1.000     C          -0.096774           
         C26       1.0000    0.71270   0.42712   0.72105   Biso      1.000     C          -0.097018           
         C27       1.0000    0.71760   0.92798   0.28645   Biso      1.000     C          -0.098756           
         C28       1.0000    0.78664   0.92809   0.22321   Biso      1.000     C          -0.099631           
         C29       1.0000    0.28099   0.06482   0.71482   Biso      1.000     C          -0.098627           
         C30       1.0000    0.71777   0.56482   0.28648   Biso      1.000     C          -0.096024           
         C31       1.0000    0.28811   0.92714   0.27833   Biso      1.000     C          -0.097469           
         C32       1.0000    0.78679   0.56495   0.22339   Biso      1.000     C          -0.099191           
         H1        1.0000    0.81254   0.42214   0.20056   Biso      1.000     H          0.118117  
         H2        1.0000    0.19532   0.07262   0.19045   Biso      1.000     H          0.11839   
         H3        1.0000    0.69262   0.42203   0.31016   Biso      1.000     H          0.117975  
         H4        1.0000    0.19341   0.42384   0.18878   Biso      1.000     H          0.118068  
         H5        1.0000    0.30639   0.92201   0.69161   Biso      1.000     H          0.119262  
         H6        1.0000    0.18582   0.92219   0.80017   Biso      1.000     H          0.117991  
         H7        1.0000    0.49741   0.74340   0.61791   Biso      1.000     H          0.44551   
         H8        1.0000    0.49709   0.24341   0.38404   Biso      1.000     H          0.446801  
         H9        1.0000    0.31392   0.06915   0.30219   Biso      1.000     H          0.118256  
         H10       1.0000    0.31209   0.42045   0.30051   Biso      1.000     H          0.118639  
         H11       1.0000    0.99935   0.74765   0.88591   Biso      1.000     H          0.395643  
         H12       1.0000    0.81233   0.07085   0.20027   Biso      1.000     H          0.118863  
         H13       1.0000    0.69234   0.07077   0.31018   Biso      1.000     H          0.119297  
         H14       1.0000    0.68685   0.56911   0.69726   Biso      1.000     H          0.119004  
         H15       1.0000    0.30672   0.57079   0.69159   Biso      1.000     H          0.118952  
         H16       1.0000    0.18609   0.57086   0.80047   Biso      1.000     H          0.118084  
         H17       1.0000    0.68869   0.92045   0.69902   Biso      1.000     H          0.11955   
         H18       1.0000    0.80731   0.92389   0.81090   Biso      1.000     H          0.118057  
         H19       1.0000    0.00203   0.24730   0.11971   Biso      1.000     H          0.453805  
         H20       1.0000    0.80540   0.57264   0.80916   Biso      1.000     H          0.118175  
         O1        1.0000    0.42194   0.57195   0.41339   Biso      1.000     O          -0.605088           
         O2        1.0000    0.57771   0.07195   0.58721   Biso      1.000     O          -0.603684           
         O3        1.0000    0.07492   0.07414   0.91000   Biso      1.000     O          -0.610113           
         O4        1.0000    0.41953   0.07365   0.58533   Biso      1.000     O          -0.604151           
         O5        1.0000    0.91973   0.07914   0.91680   Biso      1.000     O          -0.605998           
         O6        1.0000    0.49869   0.24381   0.44786   Biso      1.000     O          -1.048471           
         O7        1.0000    0.42151   0.91473   0.41462   Biso      1.000     O          -0.606696           
         O8        1.0000    0.08111   0.92368   0.08391   Biso      1.000     O          -0.602971           
         O9        1.0000    0.08029   0.57795   0.08429   Biso      1.000     O          -0.6003   
         O10       1.0000    0.07699   0.41722   0.91308   Biso      1.000     O          -0.60789  
         O11       1.0000    0.41973   0.41669   0.58471   Biso      1.000     O          -0.604625           
         O12       1.0000    0.49840   0.74380   0.55406   Biso      1.000     O          -1.047096           
         O13       1.0000    0.92225   0.57284   0.08903   Biso      1.000     O          -0.601461           
         O14       1.0000    0.57936   0.57361   0.41636   Biso      1.000     O          -0.605518           
         O15       1.0000    0.00101   0.24736   0.05567   Biso      1.000     O          -1.051549           
         O16       1.0000    0.92056   0.91857   0.08636   Biso      1.000     O          -0.6005   
         O17       1.0000    0.91932   0.42238   0.91662   Biso      1.000     O          -0.608919           
         O18       1.0000    0.57814   0.41468   0.58600   Biso      1.000     O          -0.604826           
         O19       1.0000    0.99935   0.74765   0.96002   Biso      1.000     O          -1.007249           
         O20       1.0000    0.57915   0.91670   0.41696   Biso      1.000     O          -0.6045 