
##########################################################################
#               Crystallographic Information Format file
#               Produced by PyCifRW module
#
#  This is a CIF file.  CIF has been adopted by the International
#  Union of Crystallography as the standard for data archiving and
#  transmission.
#
#  For information on this file format, follow the CIF links at
#  http://www.iucr.org
##########################################################################

data_image0

_cell_length_a                          13.1741
_cell_length_b                          13.219
_cell_length_c                          14.0288
_cell_angle_alpha                       82.989
_cell_angle_beta                        82.369
_cell_angle_gamma                       84.054
_symmetry_space_group_name_H-M          'P 1'
_symmetry_int_tables_number             1
loop_
  _symmetry_equiv_pos_as_xyz
         'x, y, z' 
loop_
  _atom_site_label
  _atom_site_occupancy
  _atom_site_fract_x
  _atom_site_fract_y
  _atom_site_fract_z
  _atom_site_thermal_displace_type
  _atom_site_B_iso_or_equiv
  _atom_site_type_symbol
  _atom_site_charge
         C1        1.0000    0.29070   0.23540   0.99120   Biso      1.000     C          0.036085  
         C2        1.0000    0.96380   0.41440   0.09300   Biso      1.000     C          -0.155857           
         C3        1.0000    0.88450   0.49080   0.12310   Biso      1.000     C          -0.070248           
         C4        1.0000    0.99410   0.53770   0.22950   Biso      1.000     C          -0.04738  
         C5        1.0000    0.07580   0.46510   0.20400   Biso      1.000     C          -0.14662  
         C6        1.0000    0.90740   0.55230   0.19170   Biso      1.000     C          -0.075089           
         C7        1.0000    0.05860   0.41220   0.13830   Biso      1.000     C          0.150422  
         C8        1.0000    0.37500   0.09640   0.30330   Biso      1.000     C          -0.176803           
         C9        1.0000    0.37720   0.09550   0.40180   Biso      1.000     C          0.11661600000000001           
         C10       1.0000    0.35610   0.26980   0.38880   Biso      1.000     C          0.10323099999999999           
         C11       1.0000    0.35090   0.27770   0.29070   Biso      1.000     C          -0.183557           
         C12       1.0000    0.35950   0.18720   0.24640   Biso      1.000     C          0.123099  
         C13       1.0000    0.43880   0.12920   0.99120   Biso      1.000     C          0.095696  
         C14       1.0000    0.43830   0.13140   0.08920   Biso      1.000     C          -0.174519           
         C15       1.0000    0.36040   0.18820   0.14060   Biso      1.000     C          0.058888  
         C16       1.0000    0.28610   0.24380   0.08880   Biso      1.000     C          0.080762  
         C17       1.0000    0.56720   0.16510   0.67970   Biso      1.000     C          0.601738  
         C18       1.0000    0.84070   0.17450   0.73920   Biso      1.000     C          0.091722  
         C19       1.0000    0.15930   0.82550   0.26080   Biso      1.000     C          0.091718  
         C20       1.0000    0.90230   0.17520   0.65470   Biso      1.000     C          0.100194  
         C21       1.0000    0.09770   0.82480   0.34530   Biso      1.000     C          0.10019199999999999           
         C22       1.0000    0.31940   0.83250   0.33040   Biso      1.000     C          -0.011965           
         C23       1.0000    0.64770   0.46530   0.25600   Biso      1.000     C          -0.15441  
         C24       1.0000    0.65240   0.30620   0.19640   Biso      1.000     C          -0.159675           
         C25       1.0000    0.64770   0.18790   0.20220   Biso      1.000     C          -0.13126600000000002          
         C26       1.0000    0.61270   0.45710   0.42170   Biso      1.000     C          -0.116434           
         C27       1.0000    0.60890   0.35160   0.42500   Biso      1.000     C          -0.14035599999999998          
         C28       1.0000    0.63450   0.13600   0.27820   Biso      1.000     C          0.000352  
         C29       1.0000    0.62370   0.19010   0.35400   Biso      1.000     C          -0.165117           
         C30       1.0000    0.64570   0.35920   0.26020   Biso      1.000     C          0.104271  
         C31       1.0000    0.62610   0.29950   0.34870   Biso      1.000     C          0.09303   
         C32       1.0000    0.63050   0.02270   0.28950   Biso      1.000     C          0.612618  
         C33       1.0000    0.82800   0.81810   0.27910   Biso      1.000     C          0.607382  
         C34       1.0000    0.94240   0.81970   0.27080   Biso      1.000     C          -0.012125           
         C35       1.0000    0.99040   0.82130   0.34950   Biso      1.000     C          -0.15011300000000002          
         C36       1.0000    0.14730   0.83180   0.41550   Biso      1.000     C          -0.14721900000000002          
         C37       1.0000    0.25980   0.83470   0.40790   Biso      1.000     C          -0.12096300000000001          
         C38       1.0000    0.10920   0.82350   0.18520   Biso      1.000     C          -0.155763           
         C39       1.0000    0.00290   0.82350   0.18860   Biso      1.000     C          -0.11548699999999999          
         C40       1.0000    0.26920   0.82960   0.25520   Biso      1.000     C          -0.162772           
         C41       1.0000    0.63240   0.51500   0.33750   Biso      1.000     C          -0.018255           
         C42       1.0000    0.73080   0.17040   0.74480   Biso      1.000     C          -0.16281600000000002          
         C43       1.0000    0.99710   0.17650   0.81140   Biso      1.000     C          -0.11553  
         C44       1.0000    0.70930   0.76460   0.00880   Biso      1.000     C          0.036081  
         C45       1.0000    0.71390   0.75620   0.91120   Biso      1.000     C          0.080777  
         C46       1.0000    0.63960   0.81180   0.85940   Biso      1.000     C          0.058888  
         C47       1.0000    0.56170   0.86860   0.91080   Biso      1.000     C          -0.174518           
         C48       1.0000    0.56120   0.87080   0.00880   Biso      1.000     C          0.095696  
         C49       1.0000    0.64050   0.81280   0.75360   Biso      1.000     C          0.123097  
         C50       1.0000    0.64910   0.72230   0.70930   Biso      1.000     C          -0.183553           
         C51       1.0000    0.68060   0.16750   0.66960   Biso      1.000     C          -0.011926           
         C52       1.0000    0.64390   0.73020   0.61120   Biso      1.000     C          0.10323   
         C53       1.0000    0.62500   0.90360   0.69670   Biso      1.000     C          -0.176799           
         C54       1.0000    0.94140   0.58780   0.86170   Biso      1.000     C          0.15036300000000002           
         C55       1.0000    0.09260   0.44770   0.80830   Biso      1.000     C          -0.075137           
         C56       1.0000    0.92420   0.53490   0.79600   Biso      1.000     C          -0.146574           
         C57       1.0000    0.00590   0.46230   0.77050   Biso      1.000     C          -0.047337           
         C58       1.0000    0.11550   0.50920   0.87690   Biso      1.000     C          -0.070238           
         C59       1.0000    0.03620   0.58560   0.90700   Biso      1.000     C          -0.155861           
         C60       1.0000    0.62280   0.90450   0.59820   Biso      1.000     C          0.11661600000000001           
         C61       1.0000    0.36670   0.37200   0.67030   Biso      1.000     C          0.60802   
         C62       1.0000    0.43280   0.83490   0.32030   Biso      1.000     C          0.601742  
         C63       1.0000    0.35230   0.53470   0.74400   Biso      1.000     C          -0.154394           
         C64       1.0000    0.89080   0.17650   0.81480   Biso      1.000     C          -0.155757           
         C65       1.0000    0.74020   0.16530   0.59210   Biso      1.000     C          -0.120968           
         C66       1.0000    0.85270   0.16820   0.58450   Biso      1.000     C          -0.14721700000000001          
         C67       1.0000    0.00960   0.17870   0.65050   Biso      1.000     C          -0.150136           
         C68       1.0000    0.05760   0.18030   0.72920   Biso      1.000     C          -0.012071           
         C69       1.0000    0.36760   0.48500   0.66250   Biso      1.000     C          -0.018282           
         C70       1.0000    0.36950   0.97730   0.71050   Biso      1.000     C          0.612627  
         C71       1.0000    0.17200   0.18190   0.72090   Biso      1.000     C          0.607378  
         C72       1.0000    0.35430   0.64080   0.73980   Biso      1.000     C          0.104145  
         C73       1.0000    0.37630   0.80990   0.64600   Biso      1.000     C          -0.165133           
         C74       1.0000    0.36550   0.86400   0.72180   Biso      1.000     C          0.000254  
         C75       1.0000    0.39110   0.64840   0.57500   Biso      1.000     C          -0.14035899999999998          
         C76       1.0000    0.38730   0.54290   0.57830   Biso      1.000     C          -0.116407           
         C77       1.0000    0.35230   0.81210   0.79780   Biso      1.000     C          -0.131151           
         C78       1.0000    0.34760   0.69380   0.80360   Biso      1.000     C          -0.159552           
         C79       1.0000    0.37390   0.70050   0.65130   Biso      1.000     C          0.093038  
         C80       1.0000    0.63330   0.62800   0.32970   Biso      1.000     C          0.6080180000000001  
         H1        1.0000    0.61440   0.96840   0.55970   Biso      1.000     H          0.10331300000000002           
         H2        1.0000    0.64920   0.66870   0.58150   Biso      1.000     H          0.103255  
         H3        1.0000    0.65830   0.65740   0.74590   Biso      1.000     H          0.131686  
         H4        1.0000    0.50610   0.90880   0.04320   Biso      1.000     H          0.09894299999999999           
         H5        1.0000    0.15189   0.45086   0.23588   Biso      1.000     H          0.106393  
         H6        1.0000    0.50830   0.90610   0.87850   Biso      1.000     H          0.134407  
         H7        1.0000    0.84739   0.61636   0.21392   Biso      1.000     H          0.10095599999999999           
         H8        1.0000    0.00766   0.58594   0.28789   Biso      1.000     H          0.079601  
         H9        1.0000    0.80644   0.50339   0.09481   Biso      1.000     H          0.09641   
         H10       1.0000    0.61580   0.96620   0.72500   Biso      1.000     H          0.125865  
         H11       1.0000    0.76130   0.72770   0.04330   Biso      1.000     H          0.106276  
         H12       1.0000    0.84811   0.54914   0.76412   Biso      1.000     H          0.10639100000000001           
         H13       1.0000    0.97360   0.82630   0.12990   Biso      1.000     H          0.10843499999999999           
         H14       1.0000    0.35080   0.33130   0.41850   Biso      1.000     H          0.103254  
         H15       1.0000    0.34170   0.34260   0.25410   Biso      1.000     H          0.131684  
         H16       1.0000    0.49390   0.09120   0.95680   Biso      1.000     H          0.09894299999999999           
         H17       1.0000    0.49170   0.09390   0.12150   Biso      1.000     H          0.134408  
         H18       1.0000    0.23870   0.27230   0.95670   Biso      1.000     H          0.106279  
         H19       1.0000    0.69190   0.16980   0.80690   Biso      1.000     H          0.100163  
         H20       1.0000    0.02640   0.17370   0.87010   Biso      1.000     H          0.108438  
         H21       1.0000    0.85100   0.17800   0.87640   Biso      1.000     H          0.101097  
         H22       1.0000    0.71100   0.16140   0.53440   Biso      1.000     H          0.099584  
         H23       1.0000    0.89080   0.16460   0.52240   Biso      1.000     H          0.105111  
         H24       1.0000    0.04990   0.18010   0.58900   Biso      1.000     H          0.111417  
         H25       1.0000    0.38630   0.84660   0.58340   Biso      1.000     H          0.10106699999999999           
         H26       1.0000    0.40720   0.68570   0.51340   Biso      1.000     H          0.10734300000000001           
         H27       1.0000    0.39890   0.51180   0.51980   Biso      1.000     H          0.10897899999999999           
         H28       1.0000    0.34440   0.84360   0.85600   Biso      1.000     H          0.102656  
         H29       1.0000    0.33800   0.65920   0.86710   Biso      1.000     H          0.087758  
         H30       1.0000    0.33990   0.49590   0.80530   Biso      1.000     H          0.104556  
         H31       1.0000    0.30810   0.83020   0.19310   Biso      1.000     H          0.10016   
         H32       1.0000    0.38420   0.03380   0.27500   Biso      1.000     H          0.125865  
         H33       1.0000    0.38560   0.03160   0.44030   Biso      1.000     H          0.10331300000000002           
         H34       1.0000    0.60110   0.48820   0.48020   Biso      1.000     H          0.108981  
         H35       1.0000    0.10920   0.83540   0.47760   Biso      1.000     H          0.105111  
         H36       1.0000    0.95010   0.81990   0.41100   Biso      1.000     H          0.11141600000000002           
         H37       1.0000    0.61370   0.15340   0.41660   Biso      1.000     H          0.101066  
         H38       1.0000    0.59280   0.31430   0.48660   Biso      1.000     H          0.10734300000000001           
         H39       1.0000    0.65560   0.15640   0.14400   Biso      1.000     H          0.102665  
         H40       1.0000    0.66200   0.34080   0.13290   Biso      1.000     H          0.087769  
         H41       1.0000    0.66010   0.50410   0.19470   Biso      1.000     H          0.10455899999999999           
         H42       1.0000    0.95808   0.35817   0.03887   Biso      1.000     H          0.11900999999999999           
         H43       1.0000    0.19356   0.49661   0.90519   Biso      1.000     H          0.096412  
         H44       1.0000    0.99234   0.41406   0.71211   Biso      1.000     H          0.079597  
         H45       1.0000    0.04192   0.64183   0.96113   Biso      1.000     H          0.11900799999999999           
         H46       1.0000    0.14900   0.82200   0.12360   Biso      1.000     H          0.101097  
         H47       1.0000    0.28900   0.83860   0.46560   Biso      1.000     H          0.099585  
         H48       1.0000    0.15261   0.38364   0.78608   Biso      1.000     H          0.10095900000000001           
         N1        1.0000    0.36810   0.18120   0.44450   Biso      1.000     N          -0.197873           
         N2        1.0000    0.79460   0.69340   0.86200   Biso      1.000     N          -0.107074           
         N3        1.0000    0.63580   0.82140   0.05700   Biso      1.000     N          -0.173745           
         N4        1.0000    0.14430   0.34870   0.09270   Biso      1.000     N          -0.088502           
         N5        1.0000    0.63190   0.81880   0.55550   Biso      1.000     N          -0.197873           
         N6        1.0000    0.36420   0.17860   0.94300   Biso      1.000     N          -0.173745           
         N7        1.0000    0.85570   0.65130   0.90730   Biso      1.000     N          -0.08831699999999999          
         N8        1.0000    0.20540   0.30660   0.13800   Biso      1.000     N          -0.106894           
         O1        1.0000    0.77900   0.81200   0.36100   Biso      1.000     O          -0.557024           
         O2        1.0000    0.62550   0.66940   0.40660   Biso      1.000     O          -0.5497920000000001           
         O3        1.0000    0.63180   0.98180   0.21250   Biso      1.000     O          -0.5696260000000001           
         O4        1.0000    0.62550   0.97590   0.37210   Biso      1.000     O          -0.54488  
         O5        1.0000    0.79000   0.82310   0.20080   Biso      1.000     O          -0.555481           
         O6        1.0000    0.48180   0.83780   0.23730   Biso      1.000     O          -0.561426           
         O7        1.0000    0.47280   0.83540   0.39730   Biso      1.000     O          -0.54625  
         O8        1.0000    0.52720   0.16460   0.60270   Biso      1.000     O          -0.54625  
         O9        1.0000    0.51820   0.16220   0.76270   Biso      1.000     O          -0.561425           
         O10       1.0000    0.37450   0.02410   0.62790   Biso      1.000     O          -0.54488  
         O11       1.0000    0.36820   0.01820   0.78750   Biso      1.000     O          -0.5696289999999999           
         O12       1.0000    0.35700   0.32380   0.75340   Biso      1.000     O          -0.571398           
         O13       1.0000    0.37450   0.33060   0.59340   Biso      1.000     O          -0.5497920000000001           
         O14       1.0000    0.22100   0.18800   0.63900   Biso      1.000     O          -0.5570229999999999           
         O15       1.0000    0.21000   0.17690   0.79920   Biso      1.000     O          -0.555481           
         O16       1.0000    0.64300   0.67620   0.24660   Biso      1.000     O          -0.571397           
         Zn1       1.0000    0.62616   0.82239   0.41117   Biso      1.000     Zn          0.846549  
         Zn2       1.0000    0.63603   0.82803   0.20099   Biso      1.000     Zn          0.839907  
         Zn3       1.0000    0.37384   0.17761   0.58883   Biso      1.000     Zn          0.846549  
         Zn4       1.0000    0.36397   0.17197   0.79901   Biso      1.000     Zn          0.839907 