
##########################################################################
#               Crystallographic Information Format file
#               Produced by PyCifRW module
#
#  This is a CIF file.  CIF has been adopted by the International
#  Union of Crystallography as the standard for data archiving and
#  transmission.
#
#  For information on this file format, follow the CIF links at
#  http://www.iucr.org
##########################################################################

data_image0

_cell_length_a                          14.7533
_cell_length_b                          14.7533
_cell_length_c                          14.7533
_cell_angle_alpha                       109.471
_cell_angle_beta                        109.471
_cell_angle_gamma                       109.471
_symmetry_space_group_name_H-M          'P 1'
_symmetry_int_tables_number             1
loop_
  _symmetry_equiv_pos_as_xyz
         'x, y, z' 
loop_
  _atom_site_label
  _atom_site_occupancy
  _atom_site_fract_x
  _atom_site_fract_y
  _atom_site_fract_z
  _atom_site_thermal_displace_type
  _atom_site_B_iso_or_equiv
  _atom_site_type_symbol
  _atom_site_charge
         C1        1.0000    0.61311   0.36907   0.00000   Biso      1.000     C          0.376337  
         C2        1.0000    0.73074   0.40794   0.94358   Biso      1.000     C          -0.07869  
         C3        1.0000    0.81344   0.49333   0.49333   Biso      1.000     C          -0.44345500000000004          
         C4        1.0000    0.75596   0.38689   0.38689   Biso      1.000     C          0.378891  
         C5        1.0000    0.00000   0.32011   0.50667   Biso      1.000     C          -0.443521           
         C6        1.0000    0.00000   0.36907   0.61311   Biso      1.000     C          0.371694  
         C7        1.0000    0.00000   0.50667   0.32011   Biso      1.000     C          -0.44383900000000004          
         C8        1.0000    0.00000   0.61311   0.36907   Biso      1.000     C          0.37449699999999997           
         C9        1.0000    0.18656   0.67989   0.67989   Biso      1.000     C          -0.44522700000000004          
         C10       1.0000    0.24404   0.63093   0.63093   Biso      1.000     C          0.369778  
         C11       1.0000    0.36907   0.00000   0.61311   Biso      1.000     C          0.372364  
         C12       1.0000    0.67989   0.18656   0.67989   Biso      1.000     C          -0.445775           
         C13       1.0000    0.63093   0.24404   0.63093   Biso      1.000     C          0.370663  
         C14       1.0000    0.49333   0.81344   0.49333   Biso      1.000     C          -0.445421           
         C15       1.0000    0.38689   0.75596   0.38689   Biso      1.000     C          0.376783  
         C16       1.0000    0.50667   0.00000   0.32011   Biso      1.000     C          -0.443518           
         C17       1.0000    0.61311   0.00000   0.36907   Biso      1.000     C          0.375319  
         C18       1.0000    0.32011   0.50667   0.00000   Biso      1.000     C          -0.44581899999999997          
         C19       1.0000    0.36907   0.61311   0.00000   Biso      1.000     C          0.37035500000000005           
         C20       1.0000    0.49333   0.49333   0.81344   Biso      1.000     C          -0.44384700000000005          
         C21       1.0000    0.38689   0.38689   0.75596   Biso      1.000     C          0.375923  
         C22       1.0000    0.67989   0.67989   0.18656   Biso      1.000     C          -0.44637  
         C23       1.0000    0.63093   0.63093   0.24404   Biso      1.000     C          0.372654  
         C24       1.0000    0.50667   0.32011   0.00000   Biso      1.000     C          -0.44526499999999997          
         C25       1.0000    0.26926   0.21284   0.67720   Biso      1.000     C          -0.07472899999999999          
         C26       1.0000    0.53564   0.59206   0.32280   Biso      1.000     C          -0.07398099999999999          
         C27       1.0000    0.32011   0.00000   0.50667   Biso      1.000     C          -0.446358           
         C28       1.0000    0.32280   0.53564   0.59206   Biso      1.000     C          -0.075126           
         C29       1.0000    0.46436   0.78716   0.05642   Biso      1.000     C          -0.072645           
         C30       1.0000    0.67720   0.21284   0.26926   Biso      1.000     C          -0.07619  
         C31       1.0000    0.94358   0.40794   0.73074   Biso      1.000     C          -0.077519           
         C32       1.0000    0.05642   0.78716   0.46436   Biso      1.000     C          -0.073598           
         C33       1.0000    0.32280   0.59206   0.53564   Biso      1.000     C          -0.07445399999999999          
         C34       1.0000    0.53564   0.32280   0.59206   Biso      1.000     C          -0.072737           
         C35       1.0000    0.26926   0.67720   0.21284   Biso      1.000     C          -0.077713           
         C36       1.0000    0.73074   0.94358   0.40794   Biso      1.000     C          -0.076138           
         C37       1.0000    0.40794   0.73074   0.94358   Biso      1.000     C          -0.07695700000000001          
         C38       1.0000    0.46436   0.05642   0.78716   Biso      1.000     C          -0.07393  
         C39       1.0000    0.59206   0.53564   0.32280   Biso      1.000     C          -0.07547999999999999          
         C40       1.0000    0.78716   0.46436   0.05642   Biso      1.000     C          -0.073685           
         C41       1.0000    0.40794   0.94358   0.73074   Biso      1.000     C          -0.075425           
         C42       1.0000    0.21284   0.67720   0.26926   Biso      1.000     C          -0.076007           
         C43       1.0000    0.59206   0.32280   0.53564   Biso      1.000     C          -0.076921           
         C44       1.0000    0.78716   0.05642   0.46436   Biso      1.000     C          -0.074039           
         C45       1.0000    0.67720   0.26926   0.21284   Biso      1.000     C          -0.0749   
         C46       1.0000    0.94358   0.73074   0.40794   Biso      1.000     C          -0.07639  
         C47       1.0000    0.21284   0.26926   0.67720   Biso      1.000     C          -0.077111           
         C48       1.0000    0.05642   0.46436   0.78716   Biso      1.000     C          -0.07364  
         H1        1.0000    0.89626   0.41664   0.77743   Biso      1.000     H          0.094704  
         H2        1.0000    0.11884   0.63921   0.22257   Biso      1.000     H          0.091739  
         H3        1.0000    0.88116   0.52038   0.10374   Biso      1.000     H          0.09324199999999999           
         H4        1.0000    0.58336   0.47962   0.36079   Biso      1.000     H          0.091665  
         H5        1.0000    0.11884   0.22257   0.63921   Biso      1.000     H          0.091043  
         H6        1.0000    0.41664   0.77743   0.89626   Biso      1.000     H          0.091628  
         H7        1.0000    0.52038   0.10374   0.88116   Biso      1.000     H          0.090793  
         H8        1.0000    0.22257   0.63921   0.11884   Biso      1.000     H          0.092449  
         H9        1.0000    0.47962   0.36079   0.58336   Biso      1.000     H          0.092795  
         H10       1.0000    0.36079   0.58336   0.47962   Biso      1.000     H          0.091882  
         H11       1.0000    0.58336   0.36079   0.47962   Biso      1.000     H          0.091465  
         H12       1.0000    0.77743   0.89626   0.41664   Biso      1.000     H          0.091284  
         H13       1.0000    0.88116   0.10374   0.52038   Biso      1.000     H          0.093081  
         H14       1.0000    0.91119   0.26983   0.43420   Biso      1.000     H          0.13687   
         H15       1.0000    0.89626   0.77743   0.41664   Biso      1.000     H          0.091989  
         H16       1.0000    0.10374   0.52038   0.88116   Biso      1.000     H          0.094553  
         H17       1.0000    0.36079   0.47962   0.58336   Biso      1.000     H          0.090911  
         H18       1.0000    0.52038   0.88116   0.10374   Biso      1.000     H          0.092762  
         H19       1.0000    0.47962   0.58336   0.36079   Biso      1.000     H          0.09081499999999999           
         H20       1.0000    0.22257   0.11884   0.63921   Biso      1.000     H          0.09162999999999999           
         H21       1.0000    0.77743   0.41664   0.89626   Biso      1.000     H          0.09221900000000001           
         H22       1.0000    0.86204   0.56511   0.48454   Biso      1.000     H          0.139496  
         H23       1.0000    0.03701   0.26358   0.50746   Biso      1.000     H          0.124463  
         H24       1.0000    0.05180   0.38955   0.49712   Biso      1.000     H          0.141005  
         H25       1.0000    0.74925   0.50662   0.51369   Biso      1.000     H          0.120576  
         H26       1.0000    0.87290   0.48949   0.56298   Biso      1.000     H          0.14066700000000001           
         H27       1.0000    0.63921   0.11884   0.22257   Biso      1.000     H          0.090654  
         H28       1.0000    0.63921   0.22257   0.11884   Biso      1.000     H          0.091672  
         H29       1.0000    0.06281   0.50369   0.38791   Biso      1.000     H          0.139459  
         H30       1.0000    0.10374   0.88116   0.52038   Biso      1.000     H          0.091833  
         H31       1.0000    0.13796   0.70307   0.62251   Biso      1.000     H          0.139346  
         H32       1.0000    0.51649   0.37585   0.08193   Biso      1.000     H          0.13719   
         H33       1.0000    0.43767   0.31295   0.92844   Biso      1.000     H          0.14149   
         H34       1.0000    0.48462   0.23416   0.98963   Biso      1.000     H          0.12186400000000001           
         H35       1.0000    0.76055   0.76167   0.25099   Biso      1.000     H          0.121511  
         H36       1.0000    0.69762   0.61980   0.13327   Biso      1.000     H          0.14097300000000001           
         H37       1.0000    0.02348   0.50126   0.25304   Biso      1.000     H          0.12224600000000001           
         H38       1.0000    0.61886   0.69557   0.13155   Biso      1.000     H          0.138846  
         H39       1.0000    0.49488   0.56000   0.88211   Biso      1.000     H          0.142     
         H40       1.0000    0.56608   0.48070   0.85101   Biso      1.000     H          0.137388  
         H41       1.0000    0.50026   0.52052   0.75107   Biso      1.000     H          0.121906  
         H42       1.0000    0.27100   0.51108   0.04524   Biso      1.000     H          0.125995  
         H43       1.0000    0.26248   0.43507   0.91078   Biso      1.000     H          0.135379  
         H44       1.0000    0.38948   0.49263   0.04398   Biso      1.000     H          0.143824  
         H45       1.0000    0.50512   0.06512   0.38723   Biso      1.000     H          0.141925  
         H46       1.0000    0.49975   0.02027   0.25081   Biso      1.000     H          0.121571  
         H47       1.0000    0.43392   0.91462   0.28492   Biso      1.000     H          0.13717000000000001           
         H48       1.0000    0.48351   0.85936   0.56545   Biso      1.000     H          0.137149  
         H49       1.0000    0.51538   0.74954   0.50500   Biso      1.000     H          0.122124  
         H50       1.0000    0.56233   0.87528   0.49077   Biso      1.000     H          0.14168499999999998           
         H51       1.0000    0.72900   0.24008   0.77424   Biso      1.000     H          0.126139  
         H52       1.0000    0.41664   0.89626   0.77743   Biso      1.000     H          0.091865  
         H53       1.0000    0.61052   0.10315   0.65449   Biso      1.000     H          0.143759  
         H54       1.0000    0.73752   0.17259   0.64830   Biso      1.000     H          0.135633  
         H55       1.0000    0.23945   0.00112   0.49044   Biso      1.000     H          0.121323  
         H56       1.0000    0.38114   0.07670   0.51269   Biso      1.000     H          0.13887   
         H57       1.0000    0.30238   0.92218   0.43565   Biso      1.000     H          0.140852  
         H58       1.0000    0.25075   0.75736   0.76444   Biso      1.000     H          0.121544  
         H59       1.0000    0.12710   0.61660   0.69009   Biso      1.000     H          0.139978  
         H60       1.0000    0.91371   0.43383   0.28202   Biso      1.000     H          0.13836099999999998           
         N1        1.0000    0.65262   0.27283   0.56021   Biso      1.000     N          -0.342369           
         N2        1.0000    0.37979   0.28738   0.72717   Biso      1.000     N          -0.343688           
         N3        1.0000    0.72717   0.28738   0.37979   Biso      1.000     N          -0.342432           
         N4        1.0000    0.90759   0.34738   0.62021   Biso      1.000     N          -0.345993           
         N5        1.0000    0.09241   0.71262   0.43979   Biso      1.000     N          -0.34444600000000003          
         N6        1.0000    0.27283   0.65262   0.56021   Biso      1.000     N          -0.344785           
         N7        1.0000    0.43979   0.09241   0.71262   Biso      1.000     N          -0.34222199999999997          
         N8        1.0000    0.56021   0.27283   0.65262   Biso      1.000     N          -0.3465   
         N9        1.0000    0.37979   0.72717   0.28738   Biso      1.000     N          -0.344447           
         N10       1.0000    0.62021   0.34738   0.90759   Biso      1.000     N          -0.344688           
         N11       1.0000    0.34738   0.62021   0.90759   Biso      1.000     N          -0.343146           
         N12       1.0000    0.28738   0.37979   0.72717   Biso      1.000     N          -0.34381300000000004          
         N13       1.0000    0.62021   0.90759   0.34738   Biso      1.000     N          -0.343958           
         N14       1.0000    0.71262   0.43979   0.09241   Biso      1.000     N          -0.344281           
         N15       1.0000    0.56021   0.65262   0.27283   Biso      1.000     N          -0.342202           
         N16       1.0000    0.65262   0.56021   0.27283   Biso      1.000     N          -0.345071           
         N17       1.0000    0.27283   0.56021   0.65262   Biso      1.000     N          -0.343188           
         N18       1.0000    0.09241   0.43979   0.71262   Biso      1.000     N          -0.34759  
         N19       1.0000    0.43979   0.71262   0.09241   Biso      1.000     N          -0.346467           
         N20       1.0000    0.72717   0.37979   0.28738   Biso      1.000     N          -0.343883           
         N21       1.0000    0.71262   0.09241   0.43979   Biso      1.000     N          -0.345629           
         N22       1.0000    0.28738   0.72717   0.37979   Biso      1.000     N          -0.342866           
         N23       1.0000    0.34738   0.90759   0.62021   Biso      1.000     N          -0.345593           
         N24       1.0000    0.90759   0.62021   0.34738   Biso      1.000     N          -0.34321799999999997          
         Zn1       1.0000    0.75000   0.50000   0.25000   Biso      1.000     Zn          0.6451180000000001  
         Zn2       1.0000    0.25000   0.50000   0.75000   Biso      1.000     Zn          0.651593  
         Zn3       1.0000    0.50000   0.75000   0.25000   Biso      1.000     Zn          0.651181  
         Zn4       1.0000    0.50000   0.25000   0.75000   Biso      1.000     Zn          0.651171  
         Zn5       1.0000    0.25000   0.75000   0.50000   Biso      1.000     Zn          0.64988   
         Zn6       1.0000    0.75000   0.25000   0.50000   Biso      1.000     Zn          0.6454489999999999 