
##########################################################################
#               Crystallographic Information Format file
#               Produced by PyCifRW module
#
#  This is a CIF file.  CIF has been adopted by the International
#  Union of Crystallography as the standard for data archiving and
#  transmission.
#
#  For information on this file format, follow the CIF links at
#  http://www.iucr.org
##########################################################################

data_image0

_cell_length_a                          12.4895
_cell_length_b                          12.4895
_cell_length_c                          18.254
_cell_angle_alpha                       98.7567
_cell_angle_beta                        98.7567
_cell_angle_gamma                       116.378
_symmetry_space_group_name_H-M          'P 1'
_symmetry_int_tables_number             1
loop_
  _symmetry_equiv_pos_as_xyz
         'x, y, z' 
loop_
  _atom_site_label
  _atom_site_occupancy
  _atom_site_fract_x
  _atom_site_fract_y
  _atom_site_fract_z
  _atom_site_thermal_displace_type
  _atom_site_B_iso_or_equiv
  _atom_site_type_symbol
  _atom_site_charge
         B1        1.0000    0.71590   0.02950   0.95000   Biso      1.000     B          0.517024  
         B2        1.0000    0.97050   0.28410   0.55000   Biso      1.000     B          0.517024  
         B3        1.0000    0.28410   0.97050   0.05000   Biso      1.000     B          0.517024  
         B4        1.0000    0.02950   0.71590   0.45000   Biso      1.000     B          0.517024  
         C1        1.0000    0.02190   0.50370   0.73080   Biso      1.000     C          -0.07849  
         C2        1.0000    0.23880   0.37740   0.46180   Biso      1.000     C          -0.021982           
         C3        1.0000    0.14770   0.39550   0.48070   Biso      1.000     C          -0.083862           
         C4        1.0000    0.14390   0.23630   0.51920   Biso      1.000     C          0.152726  
         C5        1.0000    0.86690   0.24270   0.40770   Biso      1.000     C          0.105968  
         C6        1.0000    0.69740   0.24400   0.41300   Biso      1.000     C          -0.093348           
         C7        1.0000    0.76390   0.27870   0.48690   Biso      1.000     C          -0.001601           
         C8        1.0000    0.95220   0.39860   0.67760   Biso      1.000     C          -0.022865           
         C9        1.0000    0.11850   0.50270   0.64450   Biso      1.000     C          0.126219  
         C10       1.0000    0.52540   0.26960   0.75340   Biso      1.000     C          -0.130505           
         C11       1.0000    0.81230   0.06090   0.53960   Biso      1.000     C          0.139476  
         C12       1.0000    0.54470   0.29170   0.68340   Biso      1.000     C          -0.005839           
         C13       1.0000    0.64820   0.39280   0.68050   Biso      1.000     C          -0.124051           
         C14       1.0000    0.38670   0.28170   0.32750   Biso      1.000     C          0.564611  
         C15       1.0000    0.47110   0.37110   0.28780   Biso      1.000     C          -0.036665           
         C16       1.0000    0.44020   0.34860   0.20780   Biso      1.000     C          -0.11456  
         C17       1.0000    0.57430   0.47870   0.33070   Biso      1.000     C          -0.091625           
         C18       1.0000    0.44840   0.20660   0.60920   Biso      1.000     C          0.561486  
         C19       1.0000    0.88550   0.02630   0.64520   Biso      1.000     C          -0.034013           
         C20       1.0000    0.65140   0.55980   0.29220   Biso      1.000     C          -0.11456  
         C21       1.0000    0.52130   0.42570   0.16930   Biso      1.000     C          -0.091625           
         C22       1.0000    0.70830   0.45530   0.81660   Biso      1.000     C          -0.005843           
         C23       1.0000    0.73040   0.47460   0.74660   Biso      1.000     C          -0.130496           
         C24       1.0000    0.79340   0.55160   0.89080   Biso      1.000     C          0.561486  
         C25       1.0000    0.49730   0.88150   0.85550   Biso      1.000     C          0.126219  
         C26       1.0000    0.49630   0.97810   0.76920   Biso      1.000     C          -0.07849  
         C27       1.0000    0.60140   0.04780   0.82240   Biso      1.000     C          -0.022865           
         C28       1.0000    0.72130   0.23610   0.01310   Biso      1.000     C          -0.001609           
         C29       1.0000    0.75600   0.30260   0.08700   Biso      1.000     C          -0.093341           
         C30       1.0000    0.75730   0.13310   0.09230   Biso      1.000     C          0.105969  
         C31       1.0000    0.76370   0.85610   0.98080   Biso      1.000     C          0.152726  
         C32       1.0000    0.60450   0.85230   0.01930   Biso      1.000     C          -0.083889           
         C33       1.0000    0.62260   0.76120   0.03820   Biso      1.000     C          -0.021955           
         C34       1.0000    0.93910   0.18770   0.96040   Biso      1.000     C          0.139476  
         C35       1.0000    0.97370   0.11450   0.85480   Biso      1.000     C          -0.034013           
         C36       1.0000    0.85810   0.03410   0.85540   Biso      1.000     C          -0.062557           
         C37       1.0000    0.62890   0.52890   0.21220   Biso      1.000     C          -0.036665           
         C38       1.0000    0.14190   0.96590   0.14460   Biso      1.000     C          -0.062578           
         C39       1.0000    0.96590   0.14190   0.64460   Biso      1.000     C          -0.062557           
         C40       1.0000    0.02630   0.88550   0.14520   Biso      1.000     C          -0.03399  
         C41       1.0000    0.37740   0.23880   0.96180   Biso      1.000     C          -0.021982           
         C42       1.0000    0.60720   0.35180   0.81950   Biso      1.000     C          -0.124045           
         C43       1.0000    0.85230   0.60450   0.51930   Biso      1.000     C          -0.083889           
         C44       1.0000    0.85610   0.76370   0.48080   Biso      1.000     C          0.152726  
         C45       1.0000    0.13310   0.75730   0.59230   Biso      1.000     C          0.105969  
         C46       1.0000    0.30260   0.75600   0.58700   Biso      1.000     C          -0.093348           
         C47       1.0000    0.23610   0.72130   0.51310   Biso      1.000     C          -0.001601           
         C48       1.0000    0.04780   0.60140   0.32240   Biso      1.000     C          -0.022903           
         C49       1.0000    0.97810   0.49630   0.26920   Biso      1.000     C          -0.078452           
         C50       1.0000    0.76120   0.62260   0.53820   Biso      1.000     C          -0.021955           
         C51       1.0000    0.88150   0.49730   0.35550   Biso      1.000     C          0.126219  
         C52       1.0000    0.47460   0.73040   0.24660   Biso      1.000     C          -0.130505           
         C53       1.0000    0.45530   0.70830   0.31660   Biso      1.000     C          -0.005839           
         C54       1.0000    0.35180   0.60720   0.31950   Biso      1.000     C          -0.124051           
         C55       1.0000    0.61330   0.71830   0.67250   Biso      1.000     C          0.564611  
         C56       1.0000    0.52890   0.62890   0.71220   Biso      1.000     C          -0.036666           
         C57       1.0000    0.55980   0.65140   0.79220   Biso      1.000     C          -0.11456  
         C58       1.0000    0.42570   0.52130   0.66930   Biso      1.000     C          -0.091625           
         C59       1.0000    0.55160   0.79340   0.39080   Biso      1.000     C          0.561486  
         C60       1.0000    0.06090   0.81230   0.03960   Biso      1.000     C          0.139476  
         C61       1.0000    0.18770   0.93910   0.46040   Biso      1.000     C          0.139476  
         C62       1.0000    0.03410   0.85810   0.35540   Biso      1.000     C          -0.062579           
         C63       1.0000    0.39550   0.14770   0.98070   Biso      1.000     C          -0.083862           
         C64       1.0000    0.23630   0.14390   0.01920   Biso      1.000     C          0.152726  
         C65       1.0000    0.24270   0.86690   0.90770   Biso      1.000     C          0.105968  
         C66       1.0000    0.24400   0.69740   0.91300   Biso      1.000     C          -0.093348           
         C67       1.0000    0.27870   0.76390   0.98690   Biso      1.000     C          -0.001601           
         C68       1.0000    0.39860   0.95220   0.17760   Biso      1.000     C          -0.022903           
         C69       1.0000    0.50370   0.02190   0.23080   Biso      1.000     C          -0.078452           
         C70       1.0000    0.11450   0.97370   0.35480   Biso      1.000     C          -0.033991           
         C71       1.0000    0.50270   0.11850   0.14450   Biso      1.000     C          0.126219  
         C72       1.0000    0.26960   0.52540   0.25340   Biso      1.000     C          -0.130499           
         C73       1.0000    0.29170   0.54470   0.18340   Biso      1.000     C          -0.005841           
         C74       1.0000    0.39280   0.64820   0.18050   Biso      1.000     C          -0.124045           
         C75       1.0000    0.28170   0.38670   0.82750   Biso      1.000     C          0.564611  
         C76       1.0000    0.37110   0.47110   0.78780   Biso      1.000     C          -0.036666           
         C77       1.0000    0.34860   0.44020   0.70780   Biso      1.000     C          -0.114559           
         C78       1.0000    0.47870   0.57430   0.83070   Biso      1.000     C          -0.091624           
         C79       1.0000    0.20660   0.44840   0.10920   Biso      1.000     C          0.561486  
         C80       1.0000    0.71830   0.61330   0.17250   Biso      1.000     C          0.564612  
         H1        1.0000    0.50069   0.59594   0.89585   Biso      1.000     H          0.092538  
         H2        1.0000    0.49931   0.40406   0.10415   Biso      1.000     H          0.092538  
         H3        1.0000    0.59594   0.50069   0.39585   Biso      1.000     H          0.092538  
         H4        1.0000    0.40406   0.49931   0.60415   Biso      1.000     H          0.092538  
         H5        1.0000    0.35500   0.58300   0.37000   Biso      1.000     H          0.101297  
         H6        1.0000    0.18300   0.48700   0.61100   Biso      1.000     H          0.081018  
         H7        1.0000    0.02400   0.51800   0.77400   Biso      1.000     H          0.140841  
         H8        1.0000    0.87510   0.33750   0.67840   Biso      1.000     H          0.116129  
         H9        1.0000    0.73200   0.29200   0.53700   Biso      1.000     H          0.12226   
         H10       1.0000    0.64500   0.24700   0.39000   Biso      1.000     H          0.141788  
         H11       1.0000    0.93300   0.21300   0.38200   Biso      1.000     H          0.103524  
         H12       1.0000    0.10400   0.16200   0.53600   Biso      1.000     H          0.103542  
         H13       1.0000    0.12000   0.46400   0.46100   Biso      1.000     H          0.10349   
         H14       1.0000    0.29500   0.41900   0.42800   Biso      1.000     H          0.128484  
         H15       1.0000    0.76200   0.04600   0.49100   Biso      1.000     H          0.106267  
         H16       1.0000    0.88400   0.96400   0.66900   Biso      1.000     H          0.129588  
         H17       1.0000    0.03100   0.20100   0.68000   Biso      1.000     H          0.130449  
         H18       1.0000    0.73500   0.63900   0.31500   Biso      1.000     H          0.098734  
         H19       1.0000    0.58300   0.35500   0.87000   Biso      1.000     H          0.101297  
         H20       1.0000    0.79300   0.53500   0.74000   Biso      1.000     H          0.116287  
         H21       1.0000    0.51300   0.81700   0.88900   Biso      1.000     H          0.081019  
         H22       1.0000    0.48200   0.97600   0.72600   Biso      1.000     H          0.140841  
         H23       1.0000    0.66250   0.12490   0.82160   Biso      1.000     H          0.116129  
         H24       1.0000    0.70800   0.26800   0.96300   Biso      1.000     H          0.12226   
         H25       1.0000    0.75300   0.35500   0.11000   Biso      1.000     H          0.141788  
         H26       1.0000    0.78700   0.06700   0.11800   Biso      1.000     H          0.103524  
         H27       1.0000    0.83800   0.89600   0.96400   Biso      1.000     H          0.103542  
         H28       1.0000    0.53600   0.88000   0.03900   Biso      1.000     H          0.103492  
         H29       1.0000    0.58100   0.70500   0.07200   Biso      1.000     H          0.128482  
         H30       1.0000    0.63900   0.73500   0.81500   Biso      1.000     H          0.098734  
         H31       1.0000    0.03600   0.11600   0.83100   Biso      1.000     H          0.129588  
         H32       1.0000    0.79900   0.96900   0.82000   Biso      1.000     H          0.130449  
         H33       1.0000    0.46500   0.20700   0.76000   Biso      1.000     H          0.116288  
         H34       1.0000    0.64500   0.41700   0.63000   Biso      1.000     H          0.101297  
         H35       1.0000    0.95400   0.23800   0.00900   Biso      1.000     H          0.106267  
         H36       1.0000    0.20100   0.03100   0.18000   Biso      1.000     H          0.130451  
         H37       1.0000    0.36100   0.26500   0.18500   Biso      1.000     H          0.098734  
         H38       1.0000    0.53500   0.79300   0.24000   Biso      1.000     H          0.116287  
         H39       1.0000    0.81700   0.51300   0.38900   Biso      1.000     H          0.081019  
         H40       1.0000    0.97600   0.48200   0.22600   Biso      1.000     H          0.140839  
         H41       1.0000    0.12490   0.66250   0.32160   Biso      1.000     H          0.116132  
         H42       1.0000    0.26800   0.70800   0.46300   Biso      1.000     H          0.12226   
         H43       1.0000    0.06700   0.78700   0.61800   Biso      1.000     H          0.103524  
         H44       1.0000    0.89600   0.83800   0.46400   Biso      1.000     H          0.103542  
         H45       1.0000    0.88000   0.53600   0.53900   Biso      1.000     H          0.103492  
         H46       1.0000    0.70500   0.58100   0.57200   Biso      1.000     H          0.128482  
         H47       1.0000    0.23800   0.95400   0.50900   Biso      1.000     H          0.106267  
         H48       1.0000    0.11600   0.03600   0.33100   Biso      1.000     H          0.129586  
         H49       1.0000    0.96900   0.79900   0.32000   Biso      1.000     H          0.130451  
         H50       1.0000    0.35500   0.75300   0.61000   Biso      1.000     H          0.141789  
         H51       1.0000    0.41700   0.64500   0.13000   Biso      1.000     H          0.101297  
         H52       1.0000    0.26500   0.36100   0.68500   Biso      1.000     H          0.098734  
         H53       1.0000    0.96400   0.88400   0.16900   Biso      1.000     H          0.129586  
         H54       1.0000    0.04600   0.76200   0.99100   Biso      1.000     H          0.106267  
         H55       1.0000    0.41900   0.29500   0.92800   Biso      1.000     H          0.128484  
         H56       1.0000    0.16200   0.10400   0.03600   Biso      1.000     H          0.103542  
         H57       1.0000    0.21300   0.93300   0.88200   Biso      1.000     H          0.103524  
         H58       1.0000    0.46400   0.12000   0.96100   Biso      1.000     H          0.10349   
         H59       1.0000    0.24700   0.64500   0.89000   Biso      1.000     H          0.141788  
         H60       1.0000    0.29200   0.73200   0.03700   Biso      1.000     H          0.12226   
         H61       1.0000    0.33750   0.87510   0.17840   Biso      1.000     H          0.116132  
         H62       1.0000    0.51800   0.02400   0.27400   Biso      1.000     H          0.140839  
         H63       1.0000    0.48700   0.18300   0.11100   Biso      1.000     H          0.081018  
         H64       1.0000    0.20700   0.46500   0.26000   Biso      1.000     H          0.116287  
         N1        1.0000    0.39460   0.01280   0.12080   Biso      1.000     N          -0.203708           
         N2        1.0000    0.27780   0.23800   0.98570   Biso      1.000     N          -0.271427           
         N3        1.0000    0.30460   0.08540   0.01780   Biso      1.000     N          -0.2218   
         N4        1.0000    0.22660   0.76200   0.86280   Biso      1.000     N          -0.271386           
         N5        1.0000    0.27730   0.87130   0.98330   Biso      1.000     N          -0.210958           
         N6        1.0000    0.16550   0.91890   0.07740   Biso      1.000     N          -0.216924           
         N7        1.0000    0.57140   0.12800   0.21020   Biso      1.000     N          -0.263029           
         N8        1.0000    0.12870   0.72270   0.51670   Biso      1.000     N          -0.210957           
         N9        1.0000    0.08110   0.83450   0.42260   Biso      1.000     N          -0.216924           
         N10       1.0000    0.76200   0.72220   0.51430   Biso      1.000     N          -0.27143  
         N11       1.0000    0.91460   0.69540   0.48220   Biso      1.000     N          -0.221798           
         N12       1.0000    0.23800   0.77340   0.63720   Biso      1.000     N          -0.271386           
         N13       1.0000    0.98720   0.60540   0.37920   Biso      1.000     N          -0.203708           
         N14       1.0000    0.87200   0.42860   0.28980   Biso      1.000     N          -0.263029           
         N15       1.0000    0.97560   0.78800   0.07940   Biso      1.000     N          -0.29823  
         N16       1.0000    0.21200   0.02440   0.42060   Biso      1.000     N          -0.29823  
         N17       1.0000    0.12800   0.57140   0.71020   Biso      1.000     N          -0.263025           
         N18       1.0000    0.23800   0.27780   0.48570   Biso      1.000     N          -0.271427           
         N19       1.0000    0.87130   0.27730   0.48330   Biso      1.000     N          -0.210958           
         N20       1.0000    0.01280   0.39460   0.62080   Biso      1.000     N          -0.203711           
         N21       1.0000    0.02440   0.21200   0.92060   Biso      1.000     N          -0.298227           
         N22       1.0000    0.72220   0.76200   0.01430   Biso      1.000     N          -0.27143  
         N23       1.0000    0.69540   0.91460   0.98220   Biso      1.000     N          -0.221797           
         N24       1.0000    0.77340   0.23800   0.13720   Biso      1.000     N          -0.271387           
         N25       1.0000    0.72270   0.12870   0.01670   Biso      1.000     N          -0.210957           
         N26       1.0000    0.83450   0.08110   0.92260   Biso      1.000     N          -0.216926           
         N27       1.0000    0.42860   0.87200   0.78980   Biso      1.000     N          -0.263025           
         N28       1.0000    0.78800   0.97560   0.57940   Biso      1.000     N          -0.298227           
         N29       1.0000    0.91890   0.16550   0.57740   Biso      1.000     N          -0.216926           
         N30       1.0000    0.08540   0.30460   0.51780   Biso      1.000     N          -0.2218   
         N31       1.0000    0.76200   0.22660   0.36280   Biso      1.000     N          -0.271386           
         N32       1.0000    0.60540   0.98720   0.87920   Biso      1.000     N          -0.203711           
         O1        1.0000    0.12420   0.34960   0.11230   Biso      1.000     O          -0.562237           
         O2        1.0000    0.56210   0.70590   0.60270   Biso      1.000     O          -0.555429           
         O3        1.0000    0.72070   0.79390   0.70720   Biso      1.000     O          -0.560681           
         O4        1.0000    0.52590   0.76330   0.45370   Biso      1.000     O          -0.588765           
         O5        1.0000    0.65040   0.87580   0.38770   Biso      1.000     O          -0.562237           
         O6        1.0000    0.29410   0.43790   0.89730   Biso      1.000     O          -0.555429           
         O7        1.0000    0.20610   0.27930   0.79280   Biso      1.000     O          -0.56068  
         O8        1.0000    0.23670   0.47410   0.04630   Biso      1.000     O          -0.588765           
         O9        1.0000    0.43790   0.29410   0.39730   Biso      1.000     O          -0.555429           
         O10       1.0000    0.76330   0.52590   0.95370   Biso      1.000     O          -0.588765           
         O11       1.0000    0.47410   0.23670   0.54630   Biso      1.000     O          -0.588765           
         O12       1.0000    0.34960   0.12420   0.61230   Biso      1.000     O          -0.562237           
         O13       1.0000    0.70590   0.56210   0.10270   Biso      1.000     O          -0.55543  
         O14       1.0000    0.79390   0.72070   0.20720   Biso      1.000     O          -0.560681           
         O15       1.0000    0.87580   0.65040   0.88770   Biso      1.000     O          -0.562237           
         O16       1.0000    0.27930   0.20610   0.29280   Biso      1.000     O          -0.560681           
         Zn1       1.0000    0.75145   0.24855   0.25000   Biso      1.000     Zn          0.724888  
         Zn2       1.0000    0.24855   0.75145   0.75000   Biso      1.000     Zn          0.724888  
         Zn3       1.0000    0.65906   0.80218   0.54091   Biso      1.000     Zn          0.780336  
         Zn4       1.0000    0.19782   0.34094   0.95909   Biso      1.000     Zn          0.780336  
         Zn5       1.0000    0.34094   0.19782   0.45909   Biso      1.000     Zn          0.780336  
         Zn6       1.0000    0.80218   0.65906   0.04091   Biso      1.000     Zn          0.780336 