
##########################################################################
#               Crystallographic Information Format file
#               Produced by PyCifRW module
#
#  This is a CIF file.  CIF has been adopted by the International
#  Union of Crystallography as the standard for data archiving and
#  transmission.
#
#  For information on this file format, follow the CIF links at
#  http://www.iucr.org
##########################################################################

data_image0

_cell_length_a                          16.139
_cell_length_b                          16.139
_cell_length_c                          18.247
_cell_angle_alpha                       90
_cell_angle_beta                        90
_cell_angle_gamma                       90
_symmetry_space_group_name_H-M          'P 1'
_symmetry_int_tables_number             1
loop_
  _symmetry_equiv_pos_as_xyz
         'x, y, z' 
loop_
  _atom_site_label
  _atom_site_occupancy
  _atom_site_fract_x
  _atom_site_fract_y
  _atom_site_fract_z
  _atom_site_thermal_displace_type
  _atom_site_B_iso_or_equiv
  _atom_site_type_symbol
  _atom_site_charge
         C1        1.0000    0.13460   0.36790   0.73480   Biso      1.000     C          0.520947  
         C2        1.0000    0.63460   0.13210   0.73480   Biso      1.000     C          0.520947  
         C3        1.0000    0.61230   0.10920   0.65540   Biso      1.000     C          0.48285   
         C4        1.0000    0.61230   0.60920   0.59460   Biso      1.000     C          0.48285   
         C5        1.0000    0.63460   0.63210   0.51520   Biso      1.000     C          0.520947  
         C6        1.0000    0.13460   0.63210   0.23480   Biso      1.000     C          0.520947  
         C7        1.0000    0.11230   0.60920   0.15540   Biso      1.000     C          0.48285   
         C8        1.0000    0.11230   0.10920   0.09460   Biso      1.000     C          0.48285   
         C9        1.0000    0.13460   0.13210   0.01520   Biso      1.000     C          0.520947  
         C10       1.0000    0.13460   0.86790   0.51520   Biso      1.000     C          0.520947  
         C11       1.0000    0.88770   0.89080   0.09460   Biso      1.000     C          0.48285   
         C12       1.0000    0.86540   0.86790   0.01520   Biso      1.000     C          0.520947  
         C13       1.0000    0.86540   0.36790   0.23480   Biso      1.000     C          0.520947  
         C14       1.0000    0.88770   0.39080   0.15540   Biso      1.000     C          0.48285   
         C15       1.0000    0.38770   0.39080   0.59460   Biso      1.000     C          0.48285   
         C16       1.0000    0.36540   0.36790   0.51520   Biso      1.000     C          0.520947  
         C17       1.0000    0.36540   0.86790   0.73480   Biso      1.000     C          0.520947  
         C18       1.0000    0.38770   0.89080   0.65540   Biso      1.000     C          0.48285   
         C19       1.0000    0.86790   0.63460   0.26520   Biso      1.000     C          0.520947  
         C20       1.0000    0.89080   0.61230   0.34460   Biso      1.000     C          0.48285   
         C21       1.0000    0.36790   0.13460   0.76520   Biso      1.000     C          0.520947  
         C22       1.0000    0.39080   0.11230   0.84460   Biso      1.000     C          0.48285   
         C23       1.0000    0.61230   0.39080   0.09460   Biso      1.000     C          0.48285   
         C24       1.0000    0.63460   0.36790   0.01520   Biso      1.000     C          0.520947  
         C25       1.0000    0.36790   0.86540   0.26520   Biso      1.000     C          0.520947  
         C26       1.0000    0.39080   0.88770   0.34460   Biso      1.000     C          0.48285   
         C27       1.0000    0.38770   0.60920   0.09460   Biso      1.000     C          0.48285   
         C28       1.0000    0.36540   0.63210   0.01520   Biso      1.000     C          0.520947  
         C29       1.0000    0.86790   0.36540   0.76520   Biso      1.000     C          0.520947  
         C30       1.0000    0.89080   0.38770   0.84460   Biso      1.000     C          0.48285   
         C31       1.0000    0.39080   0.38770   0.90540   Biso      1.000     C          0.48285   
         C32       1.0000    0.88770   0.10920   0.59460   Biso      1.000     C          0.48285   
         C33       1.0000    0.10920   0.38770   0.34460   Biso      1.000     C          0.48285   
         C34       1.0000    0.13210   0.36540   0.26520   Biso      1.000     C          0.520947  
         C35       1.0000    0.13210   0.63460   0.76520   Biso      1.000     C          0.520947  
         C36       1.0000    0.10920   0.61230   0.84460   Biso      1.000     C          0.48285   
         C37       1.0000    0.60920   0.88770   0.84460   Biso      1.000     C          0.48285   
         C38       1.0000    0.63210   0.86540   0.76520   Biso      1.000     C          0.520947  
         C39       1.0000    0.63210   0.13460   0.26520   Biso      1.000     C          0.520947  
         C40       1.0000    0.60920   0.11230   0.34460   Biso      1.000     C          0.48285   
         C41       1.0000    0.86540   0.13210   0.51520   Biso      1.000     C          0.520947  
         C42       1.0000    0.36790   0.36540   0.98480   Biso      1.000     C          0.520947  
         C43       1.0000    0.11230   0.89080   0.59460   Biso      1.000     C          0.48285   
         C44       1.0000    0.88770   0.60920   0.65540   Biso      1.000     C          0.48285   
         C45       1.0000    0.36790   0.63460   0.48480   Biso      1.000     C          0.520947  
         C46       1.0000    0.86540   0.63210   0.73480   Biso      1.000     C          0.520947  
         C47       1.0000    0.38770   0.10920   0.15540   Biso      1.000     C          0.48285   
         C48       1.0000    0.36540   0.13210   0.23480   Biso      1.000     C          0.520947  
         C49       1.0000    0.63210   0.63460   0.98480   Biso      1.000     C          0.520947  
         C50       1.0000    0.86790   0.13460   0.98480   Biso      1.000     C          0.520947  
         C51       1.0000    0.89080   0.11230   0.90540   Biso      1.000     C          0.48285   
         C52       1.0000    0.60920   0.61230   0.90540   Biso      1.000     C          0.48285   
         C53       1.0000    0.60920   0.38770   0.40540   Biso      1.000     C          0.48285   
         C54       1.0000    0.61230   0.89080   0.15540   Biso      1.000     C          0.48285   
         C55       1.0000    0.63460   0.86790   0.23480   Biso      1.000     C          0.520947  
         C56       1.0000    0.13210   0.13460   0.48480   Biso      1.000     C          0.520947  
         C57       1.0000    0.10920   0.11230   0.40540   Biso      1.000     C          0.48285   
         C58       1.0000    0.63210   0.36540   0.48480   Biso      1.000     C          0.520947  
         C59       1.0000    0.39080   0.61230   0.40540   Biso      1.000     C          0.48285   
         C60       1.0000    0.10920   0.88770   0.90540   Biso      1.000     C          0.48285   
         C61       1.0000    0.13210   0.86540   0.98480   Biso      1.000     C          0.520947  
         C62       1.0000    0.11230   0.39080   0.65540   Biso      1.000     C          0.48285   
         C63       1.0000    0.86790   0.86540   0.48480   Biso      1.000     C          0.520947  
         C64       1.0000    0.89080   0.88770   0.40540   Biso      1.000     C          0.48285   
         O1        1.0000    0.68460   0.18780   0.25250   Biso      1.000     O          -0.597038           
         O2        1.0000    0.68780   0.31540   0.00250   Biso      1.000     O          -0.597038           
         O3        1.0000    0.05600   0.94540   0.59910   Biso      1.000     O          -0.541721           
         O4        1.0000    0.44540   0.55600   0.40090   Biso      1.000     O          -0.541721           
         O5        1.0000    0.09230   0.90840   0.46840   Biso      1.000     O          -0.615208           
         O6        1.0000    0.14830   0.85680   0.64630   Biso      1.000     O          -0.542287           
         O7        1.0000    0.40840   0.59230   0.53160   Biso      1.000     O          -0.615208           
         O8        1.0000    0.85680   0.35170   0.89630   Biso      1.000     O          -0.542287           
         O9        1.0000    0.90840   0.40770   0.71840   Biso      1.000     O          -0.615208           
         O10       1.0000    0.44540   0.94400   0.34910   Biso      1.000     O          -0.541721           
         O11       1.0000    0.31540   0.81220   0.25250   Biso      1.000     O          -0.597038           
         O12       1.0000    0.81540   0.31220   0.75250   Biso      1.000     O          -0.597038           
         O13       1.0000    0.85680   0.14830   0.85370   Biso      1.000     O          -0.542287           
         O14       1.0000    0.35680   0.85170   0.39630   Biso      1.000     O          -0.542287           
         O15       1.0000    0.05460   0.55600   0.84910   Biso      1.000     O          -0.541721           
         O16       1.0000    0.40840   0.90770   0.21840   Biso      1.000     O          -0.615208           
         O17       1.0000    0.90840   0.09230   0.03160   Biso      1.000     O          -0.615208           
         O18       1.0000    0.94540   0.05600   0.90090   Biso      1.000     O          -0.541721           
         O19       1.0000    0.31540   0.68780   0.49750   Biso      1.000     O          -0.597038           
         O20       1.0000    0.94540   0.44400   0.84910   Biso      1.000     O          -0.541721           
         O21       1.0000    0.35680   0.64830   0.35370   Biso      1.000     O          -0.542287           
         O22       1.0000    0.44400   0.94540   0.65090   Biso      1.000     O          -0.541721           
         O23       1.0000    0.09160   0.59230   0.71840   Biso      1.000     O          -0.615208           
         O24       1.0000    0.40770   0.90840   0.78160   Biso      1.000     O          -0.615208           
         O25       1.0000    0.35170   0.85680   0.60370   Biso      1.000     O          -0.542287           
         O26       1.0000    0.85170   0.35680   0.10370   Biso      1.000     O          -0.542287           
         O27       1.0000    0.90770   0.40840   0.28160   Biso      1.000     O          -0.615208           
         O28       1.0000    0.94400   0.44540   0.15090   Biso      1.000     O          -0.541721           
         O29       1.0000    0.31220   0.81540   0.74750   Biso      1.000     O          -0.597038           
         O30       1.0000    0.68460   0.31220   0.49750   Biso      1.000     O          -0.597038           
         O31       1.0000    0.05460   0.94400   0.90090   Biso      1.000     O          -0.541721           
         O32       1.0000    0.14830   0.64320   0.10370   Biso      1.000     O          -0.542287           
         O33       1.0000    0.05600   0.55460   0.15090   Biso      1.000     O          -0.541721           
         O34       1.0000    0.68780   0.18460   0.74750   Biso      1.000     O          -0.597038           
         O35       1.0000    0.09160   0.90770   0.03160   Biso      1.000     O          -0.615208           
         O36       1.0000    0.14320   0.85170   0.85370   Biso      1.000     O          -0.542287           
         O37       1.0000    0.64830   0.14320   0.60370   Biso      1.000     O          -0.542287           
         O38       1.0000    0.59230   0.09160   0.78160   Biso      1.000     O          -0.615208           
         O39       1.0000    0.55600   0.05460   0.65090   Biso      1.000     O          -0.541721           
         O40       1.0000    0.18780   0.68460   0.24750   Biso      1.000     O          -0.597038           
         O41       1.0000    0.18460   0.81220   0.99750   Biso      1.000     O          -0.597038           
         O42       1.0000    0.55460   0.44400   0.40090   Biso      1.000     O          -0.541721           
         O43       1.0000    0.59160   0.40770   0.53160   Biso      1.000     O          -0.615208           
         O44       1.0000    0.64320   0.14830   0.39630   Biso      1.000     O          -0.542287           
         O45       1.0000    0.59160   0.09230   0.21840   Biso      1.000     O          -0.615208           
         O46       1.0000    0.55460   0.05600   0.34910   Biso      1.000     O          -0.541721           
         O47       1.0000    0.18460   0.68780   0.75250   Biso      1.000     O          -0.597038           
         O48       1.0000    0.64320   0.35170   0.35370   Biso      1.000     O          -0.542287           
         O49       1.0000    0.81220   0.31540   0.24750   Biso      1.000     O          -0.597038           
         O50       1.0000    0.14320   0.64830   0.89630   Biso      1.000     O          -0.542287           
         O51       1.0000    0.81540   0.18780   0.99750   Biso      1.000     O          -0.597038           
         O52       1.0000    0.09230   0.59160   0.28160   Biso      1.000     O          -0.615208           
         O53       1.0000    0.35170   0.64320   0.14630   Biso      1.000     O          -0.542287           
         O54       1.0000    0.59230   0.40840   0.96840   Biso      1.000     O          -0.615208           
         O55       1.0000    0.68460   0.68780   0.99750   Biso      1.000     O          -0.597038           
         O56       1.0000    0.05460   0.05600   0.40090   Biso      1.000     O          -0.541721           
         O57       1.0000    0.09160   0.09230   0.53160   Biso      1.000     O          -0.615208           
         O58       1.0000    0.14320   0.14830   0.35370   Biso      1.000     O          -0.542287           
         O59       1.0000    0.31540   0.31220   0.99750   Biso      1.000     O          -0.597038           
         O60       1.0000    0.64830   0.35680   0.14630   Biso      1.000     O          -0.542287           
         O61       1.0000    0.90840   0.90770   0.53160   Biso      1.000     O          -0.615208           
         O62       1.0000    0.85680   0.85170   0.35370   Biso      1.000     O          -0.542287           
         O63       1.0000    0.81540   0.81220   0.49750   Biso      1.000     O          -0.597038           
         O64       1.0000    0.44540   0.44400   0.90090   Biso      1.000     O          -0.541721           
         O65       1.0000    0.40840   0.40770   0.03160   Biso      1.000     O          -0.615208           
         O66       1.0000    0.35680   0.35170   0.85370   Biso      1.000     O          -0.542287           
         O67       1.0000    0.81220   0.81540   0.00250   Biso      1.000     O          -0.597038           
         O68       1.0000    0.44400   0.44540   0.59910   Biso      1.000     O          -0.541721           
         O69       1.0000    0.40770   0.40840   0.46840   Biso      1.000     O          -0.615208           
         O70       1.0000    0.64320   0.64830   0.85370   Biso      1.000     O          -0.542287           
         O71       1.0000    0.59160   0.59230   0.03160   Biso      1.000     O          -0.615208           
         O72       1.0000    0.55460   0.55600   0.90090   Biso      1.000     O          -0.541721           
         O73       1.0000    0.18460   0.18780   0.49750   Biso      1.000     O          -0.597038           
         O74       1.0000    0.68780   0.81540   0.24750   Biso      1.000     O          -0.597038           
         O75       1.0000    0.05600   0.44540   0.65090   Biso      1.000     O          -0.541721           
         O76       1.0000    0.09230   0.40840   0.78160   Biso      1.000     O          -0.615208           
         O77       1.0000    0.14830   0.35680   0.60370   Biso      1.000     O          -0.542287           
         O78       1.0000    0.18780   0.31540   0.74750   Biso      1.000     O          -0.597038           
         O79       1.0000    0.55600   0.94540   0.15090   Biso      1.000     O          -0.541721           
         O80       1.0000    0.59230   0.90840   0.28160   Biso      1.000     O          -0.615208           
         O81       1.0000    0.35170   0.35680   0.64630   Biso      1.000     O          -0.542287           
         O82       1.0000    0.64830   0.85680   0.10370   Biso      1.000     O          -0.542287           
         O83       1.0000    0.44400   0.05460   0.15090   Biso      1.000     O          -0.541721           
         O84       1.0000    0.40770   0.09160   0.28160   Biso      1.000     O          -0.615208           
         O85       1.0000    0.35170   0.14320   0.10370   Biso      1.000     O          -0.542287           
         O86       1.0000    0.31220   0.18460   0.24750   Biso      1.000     O          -0.597038           
         O87       1.0000    0.94400   0.55460   0.65090   Biso      1.000     O          -0.541721           
         O88       1.0000    0.90770   0.59160   0.78160   Biso      1.000     O          -0.615208           
         O89       1.0000    0.85170   0.64320   0.60370   Biso      1.000     O          -0.542287           
         O90       1.0000    0.81220   0.68460   0.74750   Biso      1.000     O          -0.597038           
         O91       1.0000    0.31220   0.31540   0.50250   Biso      1.000     O          -0.597038           
         O92       1.0000    0.94540   0.94400   0.40090   Biso      1.000     O          -0.541721           
         O93       1.0000    0.90770   0.90840   0.96840   Biso      1.000     O          -0.615208           
         O94       1.0000    0.59160   0.90770   0.71840   Biso      1.000     O          -0.615208           
         O95       1.0000    0.64320   0.85170   0.89630   Biso      1.000     O          -0.542287           
         O96       1.0000    0.68460   0.81220   0.75250   Biso      1.000     O          -0.597038           
         O97       1.0000    0.05460   0.44400   0.34910   Biso      1.000     O          -0.541721           
         O98       1.0000    0.09160   0.40770   0.21840   Biso      1.000     O          -0.615208           
         O99       1.0000    0.14320   0.35170   0.39630   Biso      1.000     O          -0.542287           
         O100      1.0000    0.31220   0.68460   0.00250   Biso      1.000     O          -0.597038           
         O101      1.0000    0.94400   0.05460   0.59910   Biso      1.000     O          -0.541721           
         O102      1.0000    0.90770   0.09160   0.46840   Biso      1.000     O          -0.615208           
         O103      1.0000    0.94400   0.94540   0.09910   Biso      1.000     O          -0.541721           
         O104      1.0000    0.81220   0.18460   0.50250   Biso      1.000     O          -0.597038           
         O105      1.0000    0.44400   0.55460   0.09910   Biso      1.000     O          -0.541721           
         O106      1.0000    0.40770   0.59160   0.96840   Biso      1.000     O          -0.615208           
         O107      1.0000    0.18780   0.81540   0.50250   Biso      1.000     O          -0.597037           
         O108      1.0000    0.55600   0.44540   0.09910   Biso      1.000     O          -0.541721           
         O109      1.0000    0.55460   0.94400   0.84910   Biso      1.000     O          -0.541721           
         O110      1.0000    0.18460   0.31220   0.25250   Biso      1.000     O          -0.597038           
         O111      1.0000    0.85170   0.14320   0.64630   Biso      1.000     O          -0.542287           
         O112      1.0000    0.40840   0.09230   0.71840   Biso      1.000     O          -0.615208           
         O113      1.0000    0.35680   0.14830   0.89630   Biso      1.000     O          -0.542287           
         O114      1.0000    0.85170   0.85680   0.14630   Biso      1.000     O          -0.542287           
         O115      1.0000    0.68780   0.68460   0.50250   Biso      1.000     O          -0.597038           
         O116      1.0000    0.05600   0.05460   0.09910   Biso      1.000     O          -0.541721           
         O117      1.0000    0.14830   0.14320   0.14630   Biso      1.000     O          -0.542287           
         O118      1.0000    0.18780   0.18460   0.00250   Biso      1.000     O          -0.597038           
         O119      1.0000    0.55600   0.55460   0.59910   Biso      1.000     O          -0.541721           
         O120      1.0000    0.09230   0.09160   0.96840   Biso      1.000     O          -0.615208           
         O121      1.0000    0.64830   0.64320   0.64630   Biso      1.000     O          -0.542287           
         O122      1.0000    0.31540   0.18780   0.75250   Biso      1.000     O          -0.597038           
         O123      1.0000    0.94540   0.55600   0.34910   Biso      1.000     O          -0.541721           
         O124      1.0000    0.90840   0.59230   0.21840   Biso      1.000     O          -0.615208           
         O125      1.0000    0.85680   0.64830   0.39630   Biso      1.000     O          -0.542287           
         O126      1.0000    0.81540   0.68780   0.25250   Biso      1.000     O          -0.597038           
         O127      1.0000    0.44540   0.05600   0.84910   Biso      1.000     O          -0.541721           
         O128      1.0000    0.59230   0.59160   0.46840   Biso      1.000     O          -0.615208           
         Sr1       1.0000    0.76280   0.25000   0.37500   Biso      1.000     Sr          1.498894  
         Sr2       1.0000    0.25000   0.73720   0.62500   Biso      1.000     Sr          1.498894  
         Sr3       1.0000    0.75000   0.23720   0.12500   Biso      1.000     Sr          1.498894  
         Sr4       1.0000    0.25000   0.76280   0.12500   Biso      1.000     Sr          1.498894  
         Sr5       1.0000    0.75000   0.26280   0.62500   Biso      1.000     Sr          1.498894  
         Sr6       1.0000    0.73720   0.25000   0.87500   Biso      1.000     Sr          1.498894  
         Sr7       1.0000    0.23720   0.75000   0.37500   Biso      1.000     Sr          1.498894  
         Sr8       1.0000    0.26280   0.75000   0.87500   Biso      1.000     Sr          1.498894  
         Sr9       1.0000    0.26280   0.25000   0.37500   Biso      1.000     Sr          1.498895  
         Sr10      1.0000    0.25000   0.26280   0.12500   Biso      1.000     Sr          1.498894  
         Sr11      1.0000    0.75000   0.73720   0.12500   Biso      1.000     Sr          1.498894  
         Sr12      1.0000    0.25000   0.23720   0.62500   Biso      1.000     Sr          1.498894  
         Sr13      1.0000    0.76280   0.75000   0.87500   Biso      1.000     Sr          1.498894  
         Sr14      1.0000    0.23720   0.25000   0.87500   Biso      1.000     Sr          1.498894  
         Sr15      1.0000    0.73720   0.75000   0.37500   Biso      1.000     Sr          1.498894  
         Sr16      1.0000    0.75000   0.76280   0.62500   Biso      1.000     Sr          1.498894  
         Zr1       1.0000    0.00000   0.50000   0.25000   Biso      1.000     Zr          2.172041  
         Zr2       1.0000    0.00000   0.50000   0.75000   Biso      1.000     Zr          2.17204   
         Zr3       1.0000    0.50000   0.00000   0.25000   Biso      1.000     Zr          2.172041  
         Zr4       1.0000    0.50000   0.50000   0.00000   Biso      1.000     Zr          2.172041  
         Zr5       1.0000    0.00000   0.00000   0.50000   Biso      1.000     Zr          2.172041  
         Zr6       1.0000    0.50000   0.50000   0.50000   Biso      1.000     Zr          2.17204   
         Zr7       1.0000    0.00000   0.00000   0.00000   Biso      1.000     Zr          2.17204   
         Zr8       1.0000    0.50000   0.00000   0.75000   Biso      1.000     Zr          2.17204 