
##########################################################################
#               Crystallographic Information Format file
#               Produced by PyCifRW module
#
#  This is a CIF file.  CIF has been adopted by the International
#  Union of Crystallography as the standard for data archiving and
#  transmission.
#
#  For information on this file format, follow the CIF links at
#  http://www.iucr.org
##########################################################################

data_image0

_cell_length_a                          14.7307
_cell_length_b                          14.7307
_cell_length_c                          14.7307
_cell_angle_alpha                       109.471
_cell_angle_beta                        109.471
_cell_angle_gamma                       109.471
_symmetry_space_group_name_H-M          'P 1'
_symmetry_int_tables_number             1
loop_
  _symmetry_equiv_pos_as_xyz
         'x, y, z' 
loop_
  _atom_site_label
  _atom_site_occupancy
  _atom_site_fract_x
  _atom_site_fract_y
  _atom_site_fract_z
  _atom_site_thermal_displace_type
  _atom_site_B_iso_or_equiv
  _atom_site_type_symbol
  _atom_site_charge
         C1        1.0000    0.63190   0.24660   0.63190   Biso      1.000     C          0.375759  
         C2        1.0000    0.24660   0.63190   0.63190   Biso      1.000     C          0.375589  
         C3        1.0000    0.00000   0.50770   0.31790   Biso      1.000     C          -0.44529300000000005          
         C4        1.0000    0.00000   0.61470   0.36810   Biso      1.000     C          0.379861  
         C5        1.0000    0.53220   0.58730   0.31950   Biso      1.000     C          -0.068274           
         C6        1.0000    0.46780   0.78730   0.05510   Biso      1.000     C          -0.066988           
         C7        1.0000    0.73220   0.41270   0.94490   Biso      1.000     C          -0.073022           
         C8        1.0000    0.26780   0.21270   0.68050   Biso      1.000     C          -0.069151           
         C9        1.0000    0.94490   0.73220   0.41270   Biso      1.000     C          -0.070633           
         C10       1.0000    0.68050   0.26780   0.21270   Biso      1.000     C          -0.069088           
         C11       1.0000    0.31950   0.53220   0.58730   Biso      1.000     C          -0.069678           
         C12       1.0000    0.05510   0.46780   0.78730   Biso      1.000     C          -0.06799  
         C13       1.0000    0.21270   0.68050   0.26780   Biso      1.000     C          -0.070393           
         C14       1.0000    0.41270   0.94490   0.73220   Biso      1.000     C          -0.06993400000000001          
         C15       1.0000    0.78730   0.05510   0.46780   Biso      1.000     C          -0.06807  
         C16       1.0000    0.58730   0.31950   0.53220   Biso      1.000     C          -0.07119400000000001          
         C17       1.0000    0.18980   0.68210   0.68210   Biso      1.000     C          -0.44716999999999996          
         C18       1.0000    0.75340   0.38530   0.38530   Biso      1.000     C          0.384191  
         C19       1.0000    0.81020   0.49230   0.49230   Biso      1.000     C          -0.445481           
         C20       1.0000    0.00000   0.36810   0.61470   Biso      1.000     C          0.377327  
         C21       1.0000    0.49230   0.49230   0.81020   Biso      1.000     C          -0.444985           
         C22       1.0000    0.38530   0.38530   0.75340   Biso      1.000     C          0.381058  
         C23       1.0000    0.31790   0.50770   0.00000   Biso      1.000     C          -0.447029           
         C24       1.0000    0.36810   0.61470   0.00000   Biso      1.000     C          0.37552399999999997           
         C25       1.0000    0.50770   0.31790   0.00000   Biso      1.000     C          -0.44706  
         C26       1.0000    0.61470   0.36810   0.00000   Biso      1.000     C          0.381973  
         C27       1.0000    0.68210   0.68210   0.18980   Biso      1.000     C          -0.447047           
         C28       1.0000    0.21270   0.26780   0.68050   Biso      1.000     C          -0.071247           
         C29       1.0000    0.63190   0.63190   0.24660   Biso      1.000     C          0.37789   
         C30       1.0000    0.31790   0.00000   0.50770   Biso      1.000     C          -0.446982           
         C31       1.0000    0.36810   0.00000   0.61470   Biso      1.000     C          0.377654  
         C32       1.0000    0.50770   0.00000   0.31790   Biso      1.000     C          -0.44471499999999997          
         C33       1.0000    0.61470   0.00000   0.36810   Biso      1.000     C          0.380479  
         C34       1.0000    0.49230   0.81020   0.49230   Biso      1.000     C          -0.44722799999999996          
         C35       1.0000    0.38530   0.75340   0.38530   Biso      1.000     C          0.382416  
         C36       1.0000    0.00000   0.31790   0.50770   Biso      1.000     C          -0.445514           
         C37       1.0000    0.68210   0.18980   0.68210   Biso      1.000     C          -0.44691099999999995          
         C38       1.0000    0.78730   0.46780   0.05510   Biso      1.000     C          -0.067898           
         C39       1.0000    0.41270   0.73220   0.94490   Biso      1.000     C          -0.07118200000000001          
         C40       1.0000    0.53220   0.31950   0.58730   Biso      1.000     C          -0.067001           
         C41       1.0000    0.46780   0.05510   0.78730   Biso      1.000     C          -0.068172           
         C42       1.0000    0.73220   0.94490   0.41270   Biso      1.000     C          -0.07044  
         C43       1.0000    0.26780   0.68050   0.21270   Biso      1.000     C          -0.072024           
         C44       1.0000    0.94490   0.41270   0.73220   Biso      1.000     C          -0.071588           
         C45       1.0000    0.68050   0.21270   0.26780   Biso      1.000     C          -0.07034299999999999          
         C46       1.0000    0.31950   0.58730   0.53220   Biso      1.000     C          -0.068887           
         C47       1.0000    0.05510   0.78730   0.46780   Biso      1.000     C          -0.067902           
         C48       1.0000    0.58730   0.53220   0.31950   Biso      1.000     C          -0.06990700000000001          
         H1        1.0000    0.70126   0.62278   0.13736   Biso      1.000     H          0.140743  
         H2        1.0000    0.76221   0.76443   0.25497   Biso      1.000     H          0.12239000000000001           
         H3        1.0000    0.14112   0.70558   0.62494   Biso      1.000     H          0.139673  
         H4        1.0000    0.48645   0.23197   0.98973   Biso      1.000     H          0.12261199999999998           
         H5        1.0000    0.43817   0.31019   0.92826   Biso      1.000     H          0.142025  
         H6        1.0000    0.51724   0.37342   0.08201   Biso      1.000     H          0.137493  
         H7        1.0000    0.49835   0.51893   0.74714   Biso      1.000     H          0.122629  
         H8        1.0000    0.25881   0.43623   0.91067   Biso      1.000     H          0.135169  
         H9        1.0000    0.27002   0.51334   0.04661   Biso      1.000     H          0.126594  
         H10       1.0000    0.62094   0.69720   0.13394   Biso      1.000     H          0.138956  
         H11       1.0000    0.56535   0.47975   0.84742   Biso      1.000     H          0.13733800000000002           
         H12       1.0000    0.49444   0.55946   0.87917   Biso      1.000     H          0.142519  
         H13       1.0000    0.13039   0.61918   0.69286   Biso      1.000     H          0.140432  
         H14       1.0000    0.06286   0.50421   0.38534   Biso      1.000     H          0.1404    
         H15       1.0000    0.38675   0.49229   0.04272   Biso      1.000     H          0.145029  
         H16       1.0000    0.72997   0.24331   0.77659   Biso      1.000     H          0.126717  
         H17       1.0000    0.37906   0.07625   0.51299   Biso      1.000     H          0.138951  
         H18       1.0000    0.74120   0.17743   0.65186   Biso      1.000     H          0.135372  
         H19       1.0000    0.91357   0.43460   0.27938   Biso      1.000     H          0.138219  
         H20       1.0000    0.25476   0.75966   0.76661   Biso      1.000     H          0.12261099999999998           
         H21       1.0000    0.85888   0.56445   0.48382   Biso      1.000     H          0.139817  
         H22       1.0000    0.86961   0.48879   0.56246   Biso      1.000     H          0.141035  
         H23       1.0000    0.74524   0.50490   0.51186   Biso      1.000     H          0.12163   
         H24       1.0000    0.05137   0.38696   0.49727   Biso      1.000     H          0.142277  
         H25       1.0000    0.61325   0.10553   0.65597   Biso      1.000     H          0.144948  
         H26       1.0000    0.91099   0.26677   0.43514   Biso      1.000     H          0.136915  
         H27       1.0000    0.56183   0.87202   0.49009   Biso      1.000     H          0.142219  
         H28       1.0000    0.51355   0.74553   0.50329   Biso      1.000     H          0.12287100000000001           
         H29       1.0000    0.48276   0.85618   0.56477   Biso      1.000     H          0.137458  
         H30       1.0000    0.50165   0.02058   0.24879   Biso      1.000     H          0.12228499999999999           
         H31       1.0000    0.29874   0.92152   0.43610   Biso      1.000     H          0.140623  
         H32       1.0000    0.23779   0.00222   0.49276   Biso      1.000     H          0.122188  
         H33       1.0000    0.03764   0.26185   0.50945   Biso      1.000     H          0.125333  
         H34       1.0000    0.02357   0.50305   0.25087   Biso      1.000     H          0.12288699999999998           
         H35       1.0000    0.43465   0.91440   0.28207   Biso      1.000     H          0.137158  
         H36       1.0000    0.22146   0.11897   0.64529   Biso      1.000     H          0.089389  
         H37       1.0000    0.50556   0.06502   0.38472   Biso      1.000     H          0.142476  
         H38       1.0000    0.77854   0.42383   0.89751   Biso      1.000     H          0.090044  
         H39       1.0000    0.89751   0.77854   0.42383   Biso      1.000     H          0.089811  
         H40       1.0000    0.64529   0.22146   0.11897   Biso      1.000     H          0.089347  
         H41       1.0000    0.35471   0.47368   0.57617   Biso      1.000     H          0.08881   
         H42       1.0000    0.10249   0.52632   0.88103   Biso      1.000     H          0.092298  
         H43       1.0000    0.11897   0.64529   0.22146   Biso      1.000     H          0.089576  
         H44       1.0000    0.42383   0.89751   0.77854   Biso      1.000     H          0.089615  
         H45       1.0000    0.88103   0.10249   0.52632   Biso      1.000     H          0.090685  
         H46       1.0000    0.57617   0.35471   0.47368   Biso      1.000     H          0.089351  
         H47       1.0000    0.47368   0.57617   0.35471   Biso      1.000     H          0.088647  
         H48       1.0000    0.11897   0.22146   0.64529   Biso      1.000     H          0.088771  
         H49       1.0000    0.88103   0.52632   0.10249   Biso      1.000     H          0.090958  
         H50       1.0000    0.57617   0.47368   0.35471   Biso      1.000     H          0.089416  
         H51       1.0000    0.47368   0.35471   0.57617   Biso      1.000     H          0.09057899999999999           
         H52       1.0000    0.52632   0.10249   0.88103   Biso      1.000     H          0.088602  
         H53       1.0000    0.77854   0.89751   0.42383   Biso      1.000     H          0.089039  
         H54       1.0000    0.22146   0.64529   0.11897   Biso      1.000     H          0.090263  
         H55       1.0000    0.89751   0.42383   0.77854   Biso      1.000     H          0.09245700000000001           
         H56       1.0000    0.64529   0.11897   0.22146   Biso      1.000     H          0.088385  
         H57       1.0000    0.35471   0.57617   0.47368   Biso      1.000     H          0.089698  
         H58       1.0000    0.10249   0.88103   0.52632   Biso      1.000     H          0.089634  
         H59       1.0000    0.42383   0.77854   0.89751   Biso      1.000     H          0.089499  
         H60       1.0000    0.52632   0.88103   0.10249   Biso      1.000     H          0.090536  
         N1        1.0000    0.37870   0.72690   0.28640   Biso      1.000     N          -0.34995  
         N2        1.0000    0.62130   0.90770   0.34820   Biso      1.000     N          -0.34920999999999996          
         N3        1.0000    0.27310   0.65180   0.55950   Biso      1.000     N          -0.35020500000000004          
         N4        1.0000    0.44050   0.09230   0.71360   Biso      1.000     N          -0.347647           
         N5        1.0000    0.55950   0.27310   0.65180   Biso      1.000     N          -0.35192199999999996          
         N6        1.0000    0.65180   0.55950   0.27310   Biso      1.000     N          -0.35035700000000003          
         N7        1.0000    0.71360   0.44050   0.09230   Biso      1.000     N          -0.349487           
         N8        1.0000    0.34820   0.62130   0.90770   Biso      1.000     N          -0.348229           
         N9        1.0000    0.28640   0.37870   0.72690   Biso      1.000     N          -0.349148           
         N10       1.0000    0.65180   0.27310   0.55950   Biso      1.000     N          -0.347431           
         N11       1.0000    0.09230   0.71360   0.44050   Biso      1.000     N          -0.349891           
         N12       1.0000    0.34820   0.90770   0.62130   Biso      1.000     N          -0.350869           
         N13       1.0000    0.28640   0.72690   0.37870   Biso      1.000     N          -0.348063           
         N14       1.0000    0.71360   0.09230   0.44050   Biso      1.000     N          -0.350928           
         N15       1.0000    0.27310   0.55950   0.65180   Biso      1.000     N          -0.34876599999999996          
         N16       1.0000    0.72690   0.37870   0.28640   Biso      1.000     N          -0.349041           
         N17       1.0000    0.90770   0.62130   0.34820   Biso      1.000     N          -0.348357           
         N18       1.0000    0.37870   0.28640   0.72690   Biso      1.000     N          -0.348866           
         N19       1.0000    0.62130   0.34820   0.90770   Biso      1.000     N          -0.350236           
         N20       1.0000    0.44050   0.71360   0.09230   Biso      1.000     N          -0.35185700000000003          
         N21       1.0000    0.55950   0.65180   0.27310   Biso      1.000     N          -0.347652           
         N22       1.0000    0.90770   0.34820   0.62130   Biso      1.000     N          -0.351222           
         N23       1.0000    0.72690   0.28640   0.37870   Biso      1.000     N          -0.347704           
         N24       1.0000    0.09230   0.44050   0.71360   Biso      1.000     N          -0.353197           
         Zn1       1.0000    0.25000   0.50000   0.75000   Biso      1.000     Zn          0.648205  
         Zn2       1.0000    0.75000   0.50000   0.25000   Biso      1.000     Zn          0.6414850000000001  
         Zn3       1.0000    0.50000   0.25000   0.75000   Biso      1.000     Zn          0.647813  
         Zn4       1.0000    0.50000   0.75000   0.25000   Biso      1.000     Zn          0.6478189999999999  
         Zn5       1.0000    0.75000   0.25000   0.50000   Biso      1.000     Zn          0.641941  
         Zn6       1.0000    0.25000   0.75000   0.50000   Biso      1.000     Zn          0.64627 