
##########################################################################
#               Crystallographic Information Format file
#               Produced by PyCifRW module
#
#  This is a CIF file.  CIF has been adopted by the International
#  Union of Crystallography as the standard for data archiving and
#  transmission.
#
#  For information on this file format, follow the CIF links at
#  http://www.iucr.org
##########################################################################

data_image0

_cell_length_a                          14.5933
_cell_length_b                          14.5933
_cell_length_c                          14.5933
_cell_angle_alpha                       109.471
_cell_angle_beta                        109.471
_cell_angle_gamma                       109.471
_symmetry_space_group_name_H-M          'P 1'
_symmetry_int_tables_number             1
loop_
  _symmetry_equiv_pos_as_xyz
         'x, y, z' 
loop_
  _atom_site_label
  _atom_site_occupancy
  _atom_site_fract_x
  _atom_site_fract_y
  _atom_site_fract_z
  _atom_site_thermal_displace_type
  _atom_site_B_iso_or_equiv
  _atom_site_type_symbol
  _atom_site_charge
         C1        1.0000    0.61870   0.37070   0.00000   Biso      1.000     C          0.364184  
         C2        1.0000    0.62930   0.24800   0.62930   Biso      1.000     C          0.366221  
         C3        1.0000    0.20720   0.68840   0.26360   Biso      1.000     C          -0.086201           
         C4        1.0000    0.68460   0.19700   0.68460   Biso      1.000     C          -0.449314           
         C5        1.0000    0.31160   0.57520   0.51880   Biso      1.000     C          -0.080635           
         C6        1.0000    0.42480   0.94360   0.73640   Biso      1.000     C          -0.083276           
         C7        1.0000    0.38130   0.75200   0.38130   Biso      1.000     C          0.374121  
         C8        1.0000    0.48760   0.80300   0.48760   Biso      1.000     C          -0.447853           
         C9        1.0000    0.79280   0.05640   0.48120   Biso      1.000     C          -0.082061           
         C10       1.0000    0.48120   0.05640   0.79280   Biso      1.000     C          -0.081362           
         C11       1.0000    0.68840   0.20720   0.26360   Biso      1.000     C          -0.086104           
         C12       1.0000    0.37070   0.00000   0.61870   Biso      1.000     C          0.370832  
         C13       1.0000    0.31540   0.00000   0.51240   Biso      1.000     C          -0.447212           
         C14       1.0000    0.73640   0.94360   0.42480   Biso      1.000     C          -0.080379           
         C15       1.0000    0.20720   0.26360   0.68840   Biso      1.000     C          -0.085316           
         C16       1.0000    0.48760   0.48760   0.80300   Biso      1.000     C          -0.447234           
         C17       1.0000    0.61870   0.00000   0.37070   Biso      1.000     C          0.367576  
         C18       1.0000    0.42480   0.73640   0.94360   Biso      1.000     C          -0.083515           
         C19       1.0000    0.51240   0.00000   0.31540   Biso      1.000     C          -0.448161           
         C20       1.0000    0.26360   0.68840   0.20720   Biso      1.000     C          -0.08032  
         C21       1.0000    0.79280   0.48120   0.05640   Biso      1.000     C          -0.080698           
         C22       1.0000    0.57520   0.51880   0.31160   Biso      1.000     C          -0.081781           
         C23       1.0000    0.57520   0.31160   0.51880   Biso      1.000     C          -0.078568           
         C24       1.0000    0.00000   0.31540   0.51240   Biso      1.000     C          -0.447163           
         C25       1.0000    0.24800   0.62930   0.62930   Biso      1.000     C          0.365365  
         C26       1.0000    0.51880   0.57520   0.31160   Biso      1.000     C          -0.085703           
         C27       1.0000    0.38130   0.38130   0.75200   Biso      1.000     C          0.370314  
         C28       1.0000    0.68460   0.68460   0.19700   Biso      1.000     C          -0.447017           
         C29       1.0000    0.26360   0.20720   0.68840   Biso      1.000     C          -0.081275           
         C30       1.0000    0.62930   0.62930   0.24800   Biso      1.000     C          0.371461  
         C31       1.0000    0.51240   0.31540   0.00000   Biso      1.000     C          -0.447371           
         C32       1.0000    0.73640   0.42480   0.94360   Biso      1.000     C          -0.083552           
         C33       1.0000    0.37070   0.61870   0.00000   Biso      1.000     C          0.374009  
         C34       1.0000    0.31540   0.51240   0.00000   Biso      1.000     C          -0.446155           
         C35       1.0000    0.48120   0.79280   0.05640   Biso      1.000     C          -0.080553           
         C36       1.0000    0.00000   0.37070   0.61870   Biso      1.000     C          0.371117  
         C37       1.0000    0.51880   0.31160   0.57520   Biso      1.000     C          -0.085387           
         C38       1.0000    0.31160   0.51880   0.57520   Biso      1.000     C          -0.079871           
         C39       1.0000    0.75200   0.38130   0.38130   Biso      1.000     C          0.373827  
         C40       1.0000    0.80300   0.48760   0.48760   Biso      1.000     C          -0.447901           
         C41       1.0000    0.68840   0.26360   0.20720   Biso      1.000     C          -0.080322           
         C42       1.0000    0.05640   0.79280   0.48120   Biso      1.000     C          -0.080025           
         C43       1.0000    0.00000   0.61870   0.37070   Biso      1.000     C          0.368419  
         C44       1.0000    0.94360   0.73640   0.42480   Biso      1.000     C          -0.085876           
         C45       1.0000    0.00000   0.51240   0.31540   Biso      1.000     C          -0.44835  
         C46       1.0000    0.94360   0.42480   0.73640   Biso      1.000     C          -0.083371           
         C47       1.0000    0.05640   0.48120   0.79280   Biso      1.000     C          -0.081341           
         C48       1.0000    0.19700   0.68460   0.68460   Biso      1.000     C          -0.449076           
         H1        1.0000    0.66306   0.61796   0.11267   Biso      1.000     H          0.139713  
         H2        1.0000    0.77943   0.73432   0.25534   Biso      1.000     H          0.129503  
         H3        1.0000    0.46590   0.56770   0.33480   Biso      1.000     H          0.110404  
         H4        1.0000    0.52409   0.47899   0.74466   Biso      1.000     H          0.130278  
         H5        1.0000    0.46701   0.36518   0.99371   Biso      1.000     H          0.138309  
         H6        1.0000    0.45641   0.22635   0.92522   Biso      1.000     H          0.133411  
         H7        1.0000    0.44594   0.91311   0.23982   Biso      1.000     H          0.133223  
         H8        1.0000    0.23226   0.91805   0.45068   Biso      1.000     H          0.133286  
         H9        1.0000    0.91805   0.23226   0.45068   Biso      1.000     H          0.133436  
         H10       1.0000    0.91311   0.44594   0.23982   Biso      1.000     H          0.133349  
         H11       1.0000    0.52815   0.06442   0.28650   Biso      1.000     H          0.132684  
         H12       1.0000    0.48183   0.02247   0.37760   Biso      1.000     H          0.138853  
         H13       1.0000    0.37236   0.00833   0.47435   Biso      1.000     H          0.139701  
         H14       1.0000    0.29930   0.07362   0.53090   Biso      1.000     H          0.132962  
         H15       1.0000    0.55368   0.88230   0.50015   Biso      1.000     H          0.139426  
         H16       1.0000    0.47156   0.82518   0.56120   Biso      1.000     H          0.133053  
         H17       1.0000    0.51883   0.74052   0.48272   Biso      1.000     H          0.128967  
         H18       1.0000    0.76713   0.21734   0.68464   Biso      1.000     H          0.132673  
         H19       1.0000    0.70187   0.23256   0.77473   Biso      1.000     H          0.132984  
         H20       1.0000    0.62708   0.10210   0.63671   Biso      1.000     H          0.142689  
         H21       1.0000    0.00833   0.37236   0.47435   Biso      1.000     H          0.139662  
         H22       1.0000    0.07362   0.29930   0.53090   Biso      1.000     H          0.13308   
         H23       1.0000    0.06442   0.52815   0.28650   Biso      1.000     H          0.132953  
         H24       1.0000    0.02247   0.48183   0.37760   Biso      1.000     H          0.139105  
         H25       1.0000    0.88230   0.55368   0.50015   Biso      1.000     H          0.139419  
         H26       1.0000    0.74052   0.51883   0.48272   Biso      1.000     H          0.12885   
         H27       1.0000    0.82518   0.47156   0.56120   Biso      1.000     H          0.133009  
         H28       1.0000    0.21734   0.76713   0.68464   Biso      1.000     H          0.132443  
         H29       1.0000    0.10210   0.62708   0.63671   Biso      1.000     H          0.142462  
         H30       1.0000    0.23256   0.70187   0.77473   Biso      1.000     H          0.132724  
         H31       1.0000    0.53250   0.31239   0.08107   Biso      1.000     H          0.133604  
         H32       1.0000    0.46959   0.55979   0.81600   Biso      1.000     H          0.133767  
         H33       1.0000    0.55040   0.50530   0.88733   Biso      1.000     H          0.13966   
         H34       1.0000    0.65359   0.74380   0.18400   Biso      1.000     H          0.133216  
         H35       1.0000    0.31239   0.53250   0.08107   Biso      1.000     H          0.132861  
         H36       1.0000    0.36518   0.46701   0.99371   Biso      1.000     H          0.139825  
         H37       1.0000    0.13110   0.23290   0.66520   Biso      1.000     H          0.112448  
         H38       1.0000    0.86890   0.10180   0.53410   Biso      1.000     H          0.11288   
         H39       1.0000    0.56770   0.46590   0.33480   Biso      1.000     H          0.11012   
         H40       1.0000    0.56770   0.33480   0.46590   Biso      1.000     H          0.112387  
         H41       1.0000    0.10180   0.53410   0.86890   Biso      1.000     H          0.112576  
         H42       1.0000    0.43230   0.76710   0.89820   Biso      1.000     H          0.112752  
         H43       1.0000    0.86890   0.53410   0.10180   Biso      1.000     H          0.114223  
         H44       1.0000    0.89820   0.76710   0.43230   Biso      1.000     H          0.111811  
         H45       1.0000    0.46590   0.33480   0.56770   Biso      1.000     H          0.110653  
         H46       1.0000    0.23290   0.66520   0.13110   Biso      1.000     H          0.112449  
         H47       1.0000    0.66520   0.23290   0.13110   Biso      1.000     H          0.112629  
         H48       1.0000    0.13110   0.66520   0.23290   Biso      1.000     H          0.111747  
         H49       1.0000    0.53410   0.10180   0.86890   Biso      1.000     H          0.11275   
         H50       1.0000    0.76710   0.89820   0.43230   Biso      1.000     H          0.113566  
         H51       1.0000    0.33480   0.56770   0.46590   Biso      1.000     H          0.112147  
         H52       1.0000    0.23290   0.13110   0.66520   Biso      1.000     H          0.112161  
         H53       1.0000    0.76710   0.43230   0.89820   Biso      1.000     H          0.113409  
         H54       1.0000    0.33480   0.46590   0.56770   Biso      1.000     H          0.11243   
         H55       1.0000    0.10180   0.86890   0.53410   Biso      1.000     H          0.11312   
         H56       1.0000    0.22635   0.45641   0.92522   Biso      1.000     H          0.132591  
         H57       1.0000    0.43230   0.89820   0.76710   Biso      1.000     H          0.113579  
         H58       1.0000    0.53410   0.86890   0.10180   Biso      1.000     H          0.113571  
         H59       1.0000    0.66520   0.13110   0.23290   Biso      1.000     H          0.1117    
         H60       1.0000    0.89820   0.43230   0.76710   Biso      1.000     H          0.113629  
         N1        1.0000    0.72900   0.37600   0.28160   Biso      1.000     N          -0.35334  
         N2        1.0000    0.62400   0.35300   0.90560   Biso      1.000     N          -0.352644           
         N3        1.0000    0.44740   0.71840   0.09440   Biso      1.000     N          -0.351132           
         N4        1.0000    0.09440   0.44740   0.71840   Biso      1.000     N          -0.349454           
         N5        1.0000    0.37600   0.28160   0.72900   Biso      1.000     N          -0.352477           
         N6        1.0000    0.27100   0.55260   0.64700   Biso      1.000     N          -0.351104           
         N7        1.0000    0.64700   0.27100   0.55260   Biso      1.000     N          -0.349208           
         N8        1.0000    0.55260   0.64700   0.27100   Biso      1.000     N          -0.346263           
         N9        1.0000    0.90560   0.62400   0.35300   Biso      1.000     N          -0.349334           
         N10       1.0000    0.90560   0.35300   0.62400   Biso      1.000     N          -0.35253  
         N11       1.0000    0.35300   0.90560   0.62400   Biso      1.000     N          -0.352532           
         N12       1.0000    0.09440   0.71840   0.44740   Biso      1.000     N          -0.351212           
         N13       1.0000    0.72900   0.28160   0.37600   Biso      1.000     N          -0.348175           
         N14       1.0000    0.27100   0.64700   0.55260   Biso      1.000     N          -0.349647           
         N15       1.0000    0.44740   0.09440   0.71840   Biso      1.000     N          -0.35026  
         N16       1.0000    0.28160   0.72900   0.37600   Biso      1.000     N          -0.348178           
         N17       1.0000    0.37600   0.72900   0.28160   Biso      1.000     N          -0.35255  
         N18       1.0000    0.62400   0.90560   0.35300   Biso      1.000     N          -0.35091  
         N19       1.0000    0.71840   0.44740   0.09440   Biso      1.000     N          -0.352525           
         N20       1.0000    0.35300   0.62400   0.90560   Biso      1.000     N          -0.351266           
         N21       1.0000    0.28160   0.37600   0.72900   Biso      1.000     N          -0.349621           
         N22       1.0000    0.64700   0.55260   0.27100   Biso      1.000     N          -0.349198           
         N23       1.0000    0.71840   0.09440   0.44740   Biso      1.000     N          -0.351658           
         N24       1.0000    0.55260   0.27100   0.64700   Biso      1.000     N          -0.349524           
         Zn1       1.0000    0.25000   0.75000   0.50000   Biso      1.000     Zn          0.625826  
         Zn2       1.0000    0.50000   0.75000   0.25000   Biso      1.000     Zn          0.625802  
         Zn3       1.0000    0.50000   0.25000   0.75000   Biso      1.000     Zn          0.63374   
         Zn4       1.0000    0.25000   0.50000   0.75000   Biso      1.000     Zn          0.627009  
         Zn5       1.0000    0.75000   0.50000   0.25000   Biso      1.000     Zn          0.632526  
         Zn6       1.0000    0.75000   0.25000   0.50000   Biso      1.000     Zn          0.625821 