
##########################################################################
#               Crystallographic Information Format file
#               Produced by PyCifRW module
#
#  This is a CIF file.  CIF has been adopted by the International
#  Union of Crystallography as the standard for data archiving and
#  transmission.
#
#  For information on this file format, follow the CIF links at
#  http://www.iucr.org
##########################################################################

data_image0

_cell_length_a                          14.7164
_cell_length_b                          14.7164
_cell_length_c                          14.7164
_cell_angle_alpha                       109.471
_cell_angle_beta                        109.471
_cell_angle_gamma                       109.471
_symmetry_space_group_name_H-M          'P 1'
_symmetry_int_tables_number             1
loop_
  _symmetry_equiv_pos_as_xyz
         'x, y, z' 
loop_
  _atom_site_label
  _atom_site_occupancy
  _atom_site_fract_x
  _atom_site_fract_y
  _atom_site_fract_z
  _atom_site_thermal_displace_type
  _atom_site_B_iso_or_equiv
  _atom_site_type_symbol
  _atom_site_charge
         C1        1.0000    0.36980   0.00000   0.61660   Biso      1.000     C          0.35382199999999997           
         C2        1.0000    0.00000   0.36980   0.61660   Biso      1.000     C          0.357037  
         C3        1.0000    0.31690   0.58510   0.52900   Biso      1.000     C          -0.084115           
         C4        1.0000    0.00000   0.31900   0.50980   Biso      1.000     C          -0.445866           
         C5        1.0000    0.41490   0.94390   0.73180   Biso      1.000     C          -0.082459           
         C6        1.0000    0.05610   0.78790   0.47100   Biso      1.000     C          -0.08138300000000001          
         C7        1.0000    0.24680   0.63020   0.63020   Biso      1.000     C          0.356906  
         C8        1.0000    0.19080   0.68100   0.68100   Biso      1.000     C          -0.44825200000000004          
         C9        1.0000    0.68310   0.21210   0.26820   Biso      1.000     C          -0.079791           
         C10       1.0000    0.26820   0.21210   0.68310   Biso      1.000     C          -0.079795           
         C11       1.0000    0.58510   0.31690   0.52900   Biso      1.000     C          -0.08509800000000001          
         C12       1.0000    0.00000   0.61660   0.36980   Biso      1.000     C          0.360761  
         C13       1.0000    0.00000   0.50980   0.31900   Biso      1.000     C          -0.445846           
         C14       1.0000    0.47100   0.78790   0.05610   Biso      1.000     C          -0.081359           
         C15       1.0000    0.31690   0.52900   0.58510   Biso      1.000     C          -0.07820099999999999          
         C16       1.0000    0.68100   0.19080   0.68100   Biso      1.000     C          -0.445061           
         C17       1.0000    0.75320   0.38340   0.38340   Biso      1.000     C          0.36345900000000003           
         C18       1.0000    0.05610   0.47100   0.78790   Biso      1.000     C          -0.082057           
         C19       1.0000    0.80920   0.49020   0.49020   Biso      1.000     C          -0.44825  
         C20       1.0000    0.52900   0.58510   0.31690   Biso      1.000     C          -0.079297           
         C21       1.0000    0.68310   0.26820   0.21210   Biso      1.000     C          -0.085345           
         C22       1.0000    0.94390   0.73180   0.41490   Biso      1.000     C          -0.082272           
         C23       1.0000    0.94390   0.41490   0.73180   Biso      1.000     C          -0.07928400000000001          
         C24       1.0000    0.49020   0.49020   0.80920   Biso      1.000     C          -0.44831800000000005          
         C25       1.0000    0.36980   0.61660   0.00000   Biso      1.000     C          0.361035  
         C26       1.0000    0.73180   0.94390   0.41490   Biso      1.000     C          -0.083027           
         C27       1.0000    0.63020   0.24680   0.63020   Biso      1.000     C          0.361533  
         C28       1.0000    0.50980   0.00000   0.31900   Biso      1.000     C          -0.445276           
         C29       1.0000    0.52900   0.31690   0.58510   Biso      1.000     C          -0.080959           
         C30       1.0000    0.61660   0.00000   0.36980   Biso      1.000     C          0.364088  
         C31       1.0000    0.31900   0.00000   0.50980   Biso      1.000     C          -0.44697600000000004          
         C32       1.0000    0.47100   0.05610   0.78790   Biso      1.000     C          -0.08012899999999999          
         C33       1.0000    0.38340   0.75320   0.38340   Biso      1.000     C          0.359664  
         C34       1.0000    0.49020   0.80920   0.49020   Biso      1.000     C          -0.445334           
         C35       1.0000    0.26820   0.68310   0.21210   Biso      1.000     C          -0.084396           
         C36       1.0000    0.38340   0.38340   0.75320   Biso      1.000     C          0.36318   
         C37       1.0000    0.73180   0.41490   0.94390   Biso      1.000     C          -0.084119           
         C38       1.0000    0.41490   0.73180   0.94390   Biso      1.000     C          -0.082358           
         C39       1.0000    0.63020   0.63020   0.24680   Biso      1.000     C          0.356118  
         C40       1.0000    0.68100   0.68100   0.19080   Biso      1.000     C          -0.44799799999999995          
         C41       1.0000    0.58510   0.52900   0.31690   Biso      1.000     C          -0.08000299999999999          
         C42       1.0000    0.21210   0.68310   0.26820   Biso      1.000     C          -0.080221           
         C43       1.0000    0.61660   0.36980   0.00000   Biso      1.000     C          0.357811  
         C44       1.0000    0.78790   0.47100   0.05610   Biso      1.000     C          -0.080243           
         C45       1.0000    0.50980   0.31900   0.00000   Biso      1.000     C          -0.446078           
         C46       1.0000    0.78790   0.05610   0.47100   Biso      1.000     C          -0.08067  
         C47       1.0000    0.21210   0.26820   0.68310   Biso      1.000     C          -0.085259           
         C48       1.0000    0.31900   0.50980   0.00000   Biso      1.000     C          -0.445787           
         H1        1.0000    0.52805   0.08067   0.31692   Biso      1.000     H          0.132211  
         H2        1.0000    0.61232   0.10738   0.65704   Biso      1.000     H          0.135338  
         H3        1.0000    0.76310   0.89910   0.42000   Biso      1.000     H          0.10749500000000001           
         H4        1.0000    0.73861   0.17660   0.64916   Biso      1.000     H          0.132973  
         H5        1.0000    0.37084   0.99313   0.46776   Biso      1.000     H          0.133621  
         H6        1.0000    0.23059   0.92620   0.45235   Biso      1.000     H          0.132997  
         H7        1.0000    0.46776   0.99313   0.37084   Biso      1.000     H          0.135783  
         H8        1.0000    0.45235   0.92620   0.23059   Biso      1.000     H          0.13203299999999998           
         H9        1.0000    0.92108   0.44870   0.23448   Biso      1.000     H          0.13276   
         H10       1.0000    0.91426   0.24378   0.44314   Biso      1.000     H          0.132649  
         H11       1.0000    0.89110   0.50330   0.55085   Biso      1.000     H          0.136005  
         H12       1.0000    0.82635   0.56240   0.47301   Biso      1.000     H          0.132959  
         H13       1.0000    0.75276   0.48614   0.52798   Biso      1.000     H          0.128797  
         H14       1.0000    0.00300   0.47266   0.37594   Biso      1.000     H          0.13504000000000002           
         H15       1.0000    0.07592   0.52679   0.30793   Biso      1.000     H          0.131908  
         H16       1.0000    0.20842   0.68007   0.76212   Biso      1.000     H          0.132436  
         H17       1.0000    0.22419   0.77052   0.69865   Biso      1.000     H          0.132124  
         H18       1.0000    0.09720   0.63106   0.62087   Biso      1.000     H          0.137166  
         H19       1.0000    0.06494   0.29157   0.52314   Biso      1.000     H          0.131681  
         H20       1.0000    0.02081   0.38301   0.48188   Biso      1.000     H          0.133392  
         H21       1.0000    0.55085   0.50330   0.89110   Biso      1.000     H          0.135987  
         H22       1.0000    0.52798   0.48614   0.75276   Biso      1.000     H          0.128674  
         H23       1.0000    0.47301   0.56240   0.82635   Biso      1.000     H          0.132926  
         H24       1.0000    0.52314   0.29157   0.06494   Biso      1.000     H          0.131941  
         H25       1.0000    0.48188   0.38301   0.02081   Biso      1.000     H          0.133628  
         H26       1.0000    0.76212   0.68007   0.20842   Biso      1.000     H          0.132216  
         H27       1.0000    0.62087   0.63106   0.09720   Biso      1.000     H          0.136958  
         H28       1.0000    0.69865   0.77052   0.22419   Biso      1.000     H          0.131936  
         H29       1.0000    0.37594   0.47266   0.00300   Biso      1.000     H          0.134994  
         H30       1.0000    0.30793   0.52679   0.07592   Biso      1.000     H          0.132051  
         H31       1.0000    0.50493   0.89262   0.54966   Biso      1.000     H          0.134994  
         H32       1.0000    0.48491   0.75418   0.52963   Biso      1.000     H          0.128525  
         H33       1.0000    0.31692   0.08067   0.52805   Biso      1.000     H          0.13308   
         H34       1.0000    0.73072   0.24582   0.77545   Biso      1.000     H          0.12787300000000001           
         H35       1.0000    0.56201   0.82340   0.47256   Biso      1.000     H          0.133405  
         H36       1.0000    0.44314   0.24378   0.91426   Biso      1.000     H          0.13272   
         H37       1.0000    0.34310   0.47910   0.58000   Biso      1.000     H          0.10755899999999999           
         H38       1.0000    0.65690   0.13600   0.23690   Biso      1.000     H          0.107251  
         H39       1.0000    0.89910   0.76310   0.42000   Biso      1.000     H          0.10821300000000002           
         H40       1.0000    0.89910   0.42000   0.76310   Biso      1.000     H          0.108377  
         H41       1.0000    0.13600   0.23690   0.65690   Biso      1.000     H          0.106545  
         H42       1.0000    0.10090   0.52090   0.86400   Biso      1.000     H          0.107421  
         H43       1.0000    0.65690   0.23690   0.13600   Biso      1.000     H          0.106584  
         H44       1.0000    0.86400   0.52090   0.10090   Biso      1.000     H          0.107623  
         H45       1.0000    0.76310   0.42000   0.89910   Biso      1.000     H          0.106406  
         H46       1.0000    0.47910   0.58000   0.34310   Biso      1.000     H          0.107326  
         H47       1.0000    0.58000   0.47910   0.34310   Biso      1.000     H          0.107352  
         H48       1.0000    0.34310   0.58000   0.47910   Biso      1.000     H          0.105321  
         H49       1.0000    0.23690   0.13600   0.65690   Biso      1.000     H          0.10744200000000001           
         H50       1.0000    0.52090   0.86400   0.10090   Biso      1.000     H          0.107204  
         H51       1.0000    0.42000   0.89910   0.76310   Biso      1.000     H          0.107981  
         H52       1.0000    0.47910   0.34310   0.58000   Biso      1.000     H          0.10510599999999999           
         H53       1.0000    0.52090   0.10090   0.86400   Biso      1.000     H          0.10893399999999999           
         H54       1.0000    0.42000   0.76310   0.89910   Biso      1.000     H          0.108254  
         H55       1.0000    0.13600   0.65690   0.23690   Biso      1.000     H          0.107029  
         H56       1.0000    0.23448   0.44870   0.92108   Biso      1.000     H          0.132894  
         H57       1.0000    0.10090   0.86400   0.52090   Biso      1.000     H          0.10738800000000001           
         H58       1.0000    0.23690   0.65690   0.13600   Biso      1.000     H          0.107331  
         H59       1.0000    0.58000   0.34310   0.47910   Biso      1.000     H          0.10540999999999999           
         H60       1.0000    0.86400   0.10090   0.52090   Biso      1.000     H          0.108453  
         N1        1.0000    0.65040   0.55680   0.27260   Biso      1.000     N          -0.340122           
         N2        1.0000    0.44320   0.09360   0.71580   Biso      1.000     N          -0.342622           
         N3        1.0000    0.37780   0.72740   0.28420   Biso      1.000     N          -0.340181           
         N4        1.0000    0.28420   0.37780   0.72740   Biso      1.000     N          -0.338574           
         N5        1.0000    0.55680   0.27260   0.65040   Biso      1.000     N          -0.33918400000000004          
         N6        1.0000    0.34960   0.62220   0.90640   Biso      1.000     N          -0.342989           
         N7        1.0000    0.90640   0.34960   0.62220   Biso      1.000     N          -0.340889           
         N8        1.0000    0.62220   0.90640   0.34960   Biso      1.000     N          -0.341523           
         N9        1.0000    0.71580   0.44320   0.09360   Biso      1.000     N          -0.341072           
         N10       1.0000    0.71580   0.09360   0.44320   Biso      1.000     N          -0.34182199999999996          
         N11       1.0000    0.09360   0.71580   0.44320   Biso      1.000     N          -0.34006  
         N12       1.0000    0.28420   0.72740   0.37780   Biso      1.000     N          -0.342039           
         N13       1.0000    0.65040   0.27260   0.55680   Biso      1.000     N          -0.33724899999999997          
         N14       1.0000    0.34960   0.90640   0.62220   Biso      1.000     N          -0.34228800000000004          
         N15       1.0000    0.37780   0.28420   0.72740   Biso      1.000     N          -0.343085           
         N16       1.0000    0.27260   0.65040   0.55680   Biso      1.000     N          -0.33926100000000003          
         N17       1.0000    0.55680   0.65040   0.27260   Biso      1.000     N          -0.340853           
         N18       1.0000    0.44320   0.71580   0.09360   Biso      1.000     N          -0.33921999999999997          
         N19       1.0000    0.72740   0.37780   0.28420   Biso      1.000     N          -0.338584           
         N20       1.0000    0.09360   0.44320   0.71580   Biso      1.000     N          -0.341477           
         N21       1.0000    0.27260   0.55680   0.65040   Biso      1.000     N          -0.339719           
         N22       1.0000    0.90640   0.62220   0.34960   Biso      1.000     N          -0.342982           
         N23       1.0000    0.72740   0.28420   0.37780   Biso      1.000     N          -0.342263           
         N24       1.0000    0.62220   0.34960   0.90640   Biso      1.000     N          -0.339303           
         Zn1       1.0000    0.25000   0.75000   0.50000   Biso      1.000     Zn          0.641775  
         Zn2       1.0000    0.50000   0.75000   0.25000   Biso      1.000     Zn          0.6352369999999999  
         Zn3       1.0000    0.50000   0.25000   0.75000   Biso      1.000     Zn          0.641254  
         Zn4       1.0000    0.25000   0.50000   0.75000   Biso      1.000     Zn          0.63456   
         Zn5       1.0000    0.75000   0.50000   0.25000   Biso      1.000     Zn          0.634564  
         Zn6       1.0000    0.75000   0.25000   0.50000   Biso      1.000     Zn          0.634758 