
##########################################################################
#               Crystallographic Information Format file
#               Produced by PyCifRW module
#
#  This is a CIF file.  CIF has been adopted by the International
#  Union of Crystallography as the standard for data archiving and
#  transmission.
#
#  For information on this file format, follow the CIF links at
#  http://www.iucr.org
##########################################################################

data_image0

_cell_length_a                          8.9508
_cell_length_b                          9.0892
_cell_length_c                          19.802
_cell_angle_alpha                       95.64
_cell_angle_beta                        97.68
_cell_angle_gamma                       118.25
_symmetry_space_group_name_H-M          'P 1'
_symmetry_int_tables_number             1
loop_
  _symmetry_equiv_pos_as_xyz
         'x, y, z' 
loop_
  _atom_site_label
  _atom_site_occupancy
  _atom_site_fract_x
  _atom_site_fract_y
  _atom_site_fract_z
  _atom_site_thermal_displace_type
  _atom_site_B_iso_or_equiv
  _atom_site_type_symbol
  _atom_site_charge
         C1        1.0000    0.28020   0.98860   0.00140   Biso      1.000     C          -0.078772           
         C2        1.0000    0.06380   0.34660   0.86150   Biso      1.000     C          0.642417  
         C3        1.0000    0.88550   0.24500   0.87330   Biso      1.000     C          -0.083554           
         C4        1.0000    0.78840   0.06460   0.82680   Biso      1.000     C          -0.263358           
         C5        1.0000    0.51100   0.78640   0.80420   Biso      1.000     C          0.618773  
         C6        1.0000    0.60600   0.96620   0.84640   Biso      1.000     C          -0.079696           
         C7        1.0000    0.50020   0.05870   0.82800   Biso      1.000     C          -0.23828  
         C8        1.0000    0.59660   0.23580   0.87330   Biso      1.000     C          -0.075537           
         C9        1.0000    0.50240   0.33680   0.85960   Biso      1.000     C          0.639498  
         C10       1.0000    0.00070   0.98960   0.00120   Biso      1.000     C          -0.073073           
         C11       1.0000    0.09950   0.89050   0.01520   Biso      1.000     C          -0.239248           
         C12       1.0000    0.37630   0.89370   0.01660   Biso      1.000     C          0.654653  
         C13       1.0000    0.37720   0.17540   0.04490   Biso      1.000     C          -0.260023           
         C14       1.0000    0.27490   0.26530   0.03090   Biso      1.000     C          -0.065216           
         C15       1.0000    0.37700   0.44280   0.07360   Biso      1.000     C          0.638036  
         C16       1.0000    0.78290   0.33700   0.85780   Biso      1.000     C          -0.228799           
         C17       1.0000    0.09900   0.16440   0.04370   Biso      1.000     C          -0.244595           
         C18       1.0000    0.01300   0.15200   0.57660   Biso      1.000     C          -0.189806           
         C19       1.0000    0.89700   0.06000   0.29730   Biso      1.000     C          -0.18056  
         C20       1.0000    0.80600   0.02300   0.22580   Biso      1.000     C          0.102393  
         C21       1.0000    0.58600   0.77400   0.25270   Biso      1.000     C          0.081255  
         C22       1.0000    0.05900   0.23800   0.64430   Biso      1.000     C          0.12034   
         C23       1.0000    0.80000   0.99300   0.34570   Biso      1.000     C          0.151891  
         C24       1.0000    0.65100   0.83500   0.32200   Biso      1.000     C          -0.198168           
         C25       1.0000    0.02300   0.18800   0.45270   Biso      1.000     C          -0.123451           
         C26       1.0000    0.30300   0.43400   0.61950   Biso      1.000     C          0.104788  
         C27       1.0000    0.23700   0.38200   0.54940   Biso      1.000     C          -0.213858           
         C28       1.0000    0.08200   0.24500   0.52660   Biso      1.000     C          0.167979  
         C29       1.0000    0.89100   0.06800   0.42230   Biso      1.000     C          -0.13725  
         C30       1.0000    0.81200   0.87900   0.01160   Biso      1.000     C          0.631364  
         H1        1.0000    0.26283   0.27634   0.97381   Biso      1.000     H          0.076555  
         H2        1.0000    0.62265   0.96199   0.90414   Biso      1.000     H          0.076675  
         H3        1.0000    0.89349   0.23060   0.93001   Biso      1.000     H          0.076334  
         H4        1.0000    0.60835   0.22277   0.93017   Biso      1.000     H          0.075325  
         H5        1.0000    0.99260   0.00271   0.94435   Biso      1.000     H          0.068643  
         H6        1.0000    0.26846   0.99686   0.94403   Biso      1.000     H          0.076389  
         H7        1.0000    0.84420   0.10200   0.19650   Biso      1.000     H          0.130307  
         H8        1.0000    0.01640   0.12700   0.30980   Biso      1.000     H          0.138554  
         H9        1.0000    0.77500   0.07330   0.77820   Biso      1.000     H          0.119319  
         H10       1.0000    0.85310   0.00520   0.83520   Biso      1.000     H          0.111953  
         H11       1.0000    0.84360   0.45000   0.88600   Biso      1.000     H          0.120496  
         H12       1.0000    0.77380   0.34860   0.80940   Biso      1.000     H          0.123189  
         H13       1.0000    0.03770   0.77940   0.98540   Biso      1.000     H          0.122725  
         H14       1.0000    0.10620   0.87440   0.06300   Biso      1.000     H          0.118296  
         H15       1.0000    0.48980   0.23880   0.03310   Biso      1.000     H          0.111516  
         H16       1.0000    0.39560   0.17130   0.09390   Biso      1.000     H          0.112301  
         H17       1.0000    0.10680   0.15610   0.09240   Biso      1.000     H          0.106443  
         H18       1.0000    0.03430   0.22350   0.03390   Biso      1.000     H          0.107931  
         H19       1.0000    0.97940   0.20860   0.67310   Biso      1.000     H          0.111459  
         H20       1.0000    0.93760   0.03540   0.56520   Biso      1.000     H          0.12968   
         H21       1.0000    0.30090   0.44190   0.51820   Biso      1.000     H          0.127291  
         H22       1.0000    0.41450   0.52630   0.63450   Biso      1.000     H          0.097786  
         H23       1.0000    0.09660   0.25320   0.42560   Biso      1.000     H          0.106955  
         H24       1.0000    0.82590   0.00390   0.45210   Biso      1.000     H          0.112045  
         H25       1.0000    0.59600   0.77040   0.35380   Biso      1.000     H          0.131701  
         H26       1.0000    0.48680   0.66820   0.23830   Biso      1.000     H          0.113746  
         H27       1.0000    0.38440   0.99540   0.83680   Biso      1.000     H          0.11804   
         H28       1.0000    0.49080   0.06750   0.77930   Biso      1.000     H          0.125194  
         N1        1.0000    0.21830   0.36290   0.66630   Biso      1.000     N          -0.188248           
         N2        1.0000    0.65930   0.86300   0.20380   Biso      1.000     N          -0.211761           
         O1        1.0000    0.45500   0.76270   0.73830   Biso      1.000     O          -0.623457           
         O2        1.0000    0.43030   0.66520   0.83290   Biso      1.000     O          -0.550423           
         O3        1.0000    0.09170   0.32960   0.80050   Biso      1.000     O          -0.58168  
         O4        1.0000    0.17680   0.44890   0.91250   Biso      1.000     O          -0.569026           
         O5        1.0000    0.70510   0.77460   0.96120   Biso      1.000     O          -0.556366           
         O6        1.0000    0.78620   0.90580   0.07210   Biso      1.000     O          -0.581127           
         O7        1.0000    0.38410   0.80700   0.96490   Biso      1.000     O          -0.600578           
         O8        1.0000    0.44600   0.90910   0.07590   Biso      1.000     O          -0.554168           
         O9        1.0000    0.44790   0.56330   0.03950   Biso      1.000     O          -0.595555           
         O10       1.0000    0.34890   0.47800   0.12920   Biso      1.000     O          -0.567795           
         O11       1.0000    0.45030   0.33770   0.79310   Biso      1.000     O          -0.616185           
         O12       1.0000    0.49220   0.41980   0.90690   Biso      1.000     O          -0.529408           
         Zn1       1.0000    0.56632   0.78625   0.10176   Biso      1.000     Zn          0.831073  
         Zn2       1.0000    0.44000   0.61490   0.93621   Biso      1.000     Zn          1.025133  
         Zn3       1.0000    0.31388   0.44292   0.77086   Biso      1.000     Zn          0.842582 