
##########################################################################
#               Crystallographic Information Format file
#               Produced by PyCifRW module
#
#  This is a CIF file.  CIF has been adopted by the International
#  Union of Crystallography as the standard for data archiving and
#  transmission.
#
#  For information on this file format, follow the CIF links at
#  http://www.iucr.org
##########################################################################

data_image0

_cell_length_a                          15.6929
_cell_length_b                          15.6929
_cell_length_c                          15.6929
_cell_angle_alpha                       109.471
_cell_angle_beta                        109.471
_cell_angle_gamma                       109.471
_symmetry_space_group_name_H-M          'P 1'
_symmetry_int_tables_number             1
loop_
  _symmetry_equiv_pos_as_xyz
         'x, y, z' 
loop_
  _atom_site_label
  _atom_site_occupancy
  _atom_site_fract_x
  _atom_site_fract_y
  _atom_site_fract_z
  _atom_site_thermal_displace_type
  _atom_site_B_iso_or_equiv
  _atom_site_type_symbol
  _atom_site_charge
         C1        1.0000    0.80980   0.48200   0.48200   Biso      1.000     C          -0.453234           
         C2        1.0000    0.94840   0.72860   0.40680   Biso      1.000     C          -0.07762999999999999          
         C3        1.0000    0.05160   0.45840   0.78020   Biso      1.000     C          -0.075008           
         C4        1.0000    0.40680   0.94840   0.72860   Biso      1.000     C          -0.076573           
         C5        1.0000    0.78020   0.05160   0.45840   Biso      1.000     C          -0.075315           
         C6        1.0000    0.59320   0.54160   0.32180   Biso      1.000     C          -0.076516           
         C7        1.0000    0.21980   0.27140   0.67820   Biso      1.000     C          -0.077689           
         C8        1.0000    0.78020   0.45840   0.05160   Biso      1.000     C          -0.075396           
         C9        1.0000    0.40680   0.72860   0.94840   Biso      1.000     C          -0.078152           
         C10       1.0000    0.05160   0.78020   0.45840   Biso      1.000     C          -0.075063           
         C11       1.0000    0.32180   0.54160   0.59320   Biso      1.000     C          -0.076376           
         C12       1.0000    0.94840   0.40680   0.72860   Biso      1.000     C          -0.078313           
         C13       1.0000    0.67820   0.21980   0.27140   Biso      1.000     C          -0.077337           
         C14       1.0000    0.27140   0.67820   0.21980   Biso      1.000     C          -0.078151           
         C15       1.0000    0.54160   0.32180   0.59320   Biso      1.000     C          -0.07416299999999999          
         C16       1.0000    0.72860   0.94840   0.40680   Biso      1.000     C          -0.077644           
         C17       1.0000    0.45840   0.05160   0.78020   Biso      1.000     C          -0.075683           
         C18       1.0000    0.27140   0.21980   0.67820   Biso      1.000     C          -0.07633999999999999          
         C19       1.0000    0.54160   0.59320   0.32180   Biso      1.000     C          -0.075753           
         C20       1.0000    0.72860   0.40680   0.94840   Biso      1.000     C          -0.07902100000000001          
         C21       1.0000    0.45840   0.78020   0.05160   Biso      1.000     C          -0.073995           
         C22       1.0000    0.32180   0.59320   0.54160   Biso      1.000     C          -0.075764           
         C23       1.0000    0.67820   0.27140   0.21980   Biso      1.000     C          -0.07637000000000001          
         C24       1.0000    0.67220   0.67220   0.19020   Biso      1.000     C          -0.45698199999999994          
         C25       1.0000    0.62410   0.62410   0.24780   Biso      1.000     C          0.39783   
         C26       1.0000    0.37590   0.00000   0.62370   Biso      1.000     C          0.39770900000000003           
         C27       1.0000    0.32780   0.00000   0.51800   Biso      1.000     C          -0.45695  
         C28       1.0000    0.62370   0.00000   0.37590   Biso      1.000     C          0.399959  
         C29       1.0000    0.51800   0.00000   0.32780   Biso      1.000     C          -0.454005           
         C30       1.0000    0.62410   0.24780   0.62410   Biso      1.000     C          0.396444  
         C31       1.0000    0.67220   0.19020   0.67220   Biso      1.000     C          -0.45475200000000005          
         C32       1.0000    0.37630   0.75220   0.37630   Biso      1.000     C          0.400854  
         C33       1.0000    0.48200   0.80980   0.48200   Biso      1.000     C          -0.456041           
         C34       1.0000    0.75220   0.37630   0.37630   Biso      1.000     C          0.40253099999999997           
         C35       1.0000    0.24780   0.62410   0.62410   Biso      1.000     C          0.395342  
         C36       1.0000    0.19020   0.67220   0.67220   Biso      1.000     C          -0.455736           
         C37       1.0000    0.00000   0.37590   0.62370   Biso      1.000     C          0.39717800000000003           
         C38       1.0000    0.00000   0.32780   0.51800   Biso      1.000     C          -0.45434399999999997          
         C39       1.0000    0.00000   0.62370   0.37590   Biso      1.000     C          0.39948   
         C40       1.0000    0.00000   0.51800   0.32780   Biso      1.000     C          -0.45515  
         C41       1.0000    0.37590   0.62370   0.00000   Biso      1.000     C          0.396333  
         C42       1.0000    0.32780   0.51800   0.00000   Biso      1.000     C          -0.45491899999999996          
         C43       1.0000    0.62370   0.37590   0.00000   Biso      1.000     C          0.400545  
         C44       1.0000    0.51800   0.32780   0.00000   Biso      1.000     C          -0.455938           
         C45       1.0000    0.37630   0.37630   0.75220   Biso      1.000     C          0.400372  
         C46       1.0000    0.48200   0.48200   0.80980   Biso      1.000     C          -0.454182           
         C47       1.0000    0.59320   0.32180   0.54160   Biso      1.000     C          -0.077957           
         C48       1.0000    0.21980   0.67820   0.27140   Biso      1.000     C          -0.07709500000000001          
         Cd1       1.0000    0.75000   0.50000   0.25000   Biso      1.000     Cd          0.755654  
         Cd2       1.0000    0.50000   0.25000   0.75000   Biso      1.000     Cd          0.7619600000000001  
         Cd3       1.0000    0.50000   0.75000   0.25000   Biso      1.000     Cd          0.7619630000000001  
         Cd4       1.0000    0.75000   0.25000   0.50000   Biso      1.000     Cd          0.755652  
         Cd5       1.0000    0.25000   0.75000   0.50000   Biso      1.000     Cd          0.760674  
         Cd6       1.0000    0.25000   0.50000   0.75000   Biso      1.000     Cd          0.7622180000000001  
         H1        1.0000    0.35744   0.48887   0.58496   Biso      1.000     H          0.084374  
         H2        1.0000    0.02204   0.51253   0.26468   Biso      1.000     H          0.12358   
         H3        1.0000    0.28097   0.52152   0.04186   Biso      1.000     H          0.124805  
         H4        1.0000    0.27434   0.45058   0.91612   Biso      1.000     H          0.126256  
         H5        1.0000    0.39332   0.50548   0.04202   Biso      1.000     H          0.13709200000000002           
         H6        1.0000    0.52738   0.38036   0.07705   Biso      1.000     H          0.12917599999999999           
         H7        1.0000    0.45335   0.32135   0.93276   Biso      1.000     H          0.134012  
         H8        1.0000    0.49686   0.24692   0.99019   Biso      1.000     H          0.12342   
         H9        1.0000    0.48316   0.54448   0.87426   Biso      1.000     H          0.134561  
         H10       1.0000    0.55030   0.47007   0.84532   Biso      1.000     H          0.12843800000000002           
         H11       1.0000    0.48895   0.50787   0.75146   Biso      1.000     H          0.123177  
         H12       1.0000    0.74837   0.74886   0.25044   Biso      1.000     H          0.12361   
         H13       1.0000    0.68816   0.61527   0.13964   Biso      1.000     H          0.132409  
         H14       1.0000    0.91889   0.44960   0.29217   Biso      1.000     H          0.129189  
         H15       1.0000    0.61485   0.68724   0.13888   Biso      1.000     H          0.13071   
         H16       1.0000    0.05907   0.51546   0.39177   Biso      1.000     H          0.133655  
         H17       1.0000    0.91653   0.28093   0.44987   Biso      1.000     H          0.127638  
         H18       1.0000    0.31184   0.92711   0.45148   Biso      1.000     H          0.132326  
         H19       1.0000    0.51684   0.06132   0.39110   Biso      1.000     H          0.134529  
         H20       1.0000    0.51105   0.01891   0.26251   Biso      1.000     H          0.122978  
         H21       1.0000    0.44970   0.91977   0.29502   Biso      1.000     H          0.128261  
         H22       1.0000    0.71903   0.24055   0.76090   Biso      1.000     H          0.12485999999999998           
         H23       1.0000    0.60668   0.11216   0.64869   Biso      1.000     H          0.136994  
         H24       1.0000    0.72567   0.17624   0.64178   Biso      1.000     H          0.126411  
         H25       1.0000    0.47262   0.85298   0.54967   Biso      1.000     H          0.129126  
         H26       1.0000    0.50314   0.75006   0.49333   Biso      1.000     H          0.12358699999999999           
         H27       1.0000    0.54665   0.86800   0.47941   Biso      1.000     H          0.134188  
         H28       1.0000    0.74979   0.49484   0.50156   Biso      1.000     H          0.12228299999999999           
         H29       1.0000    0.86576   0.47823   0.54728   Biso      1.000     H          0.132736  
         H30       1.0000    0.85549   0.54935   0.47358   Biso      1.000     H          0.13057   
         H31       1.0000    0.25021   0.74505   0.75177   Biso      1.000     H          0.123673  
         H32       1.0000    0.14451   0.69386   0.61809   Biso      1.000     H          0.130333  
         H33       1.0000    0.13424   0.61246   0.68152   Biso      1.000     H          0.131716  
         H34       1.0000    0.03451   0.27437   0.51826   Biso      1.000     H          0.12455   
         H35       1.0000    0.04896   0.39333   0.50945   Biso      1.000     H          0.134875  
         H36       1.0000    0.64256   0.22752   0.13143   Biso      1.000     H          0.085288  
         H37       1.0000    0.25163   0.00050   0.50208   Biso      1.000     H          0.12344100000000001           
         H38       1.0000    0.13143   0.22752   0.64256   Biso      1.000     H          0.084377  
         H39       1.0000    0.41504   0.77248   0.90391   Biso      1.000     H          0.085     
         H40       1.0000    0.38515   0.07239   0.52403   Biso      1.000     H          0.130732  
         H41       1.0000    0.09608   0.86857   0.51113   Biso      1.000     H          0.085188  
         H42       1.0000    0.90391   0.41504   0.77248   Biso      1.000     H          0.087857  
         H43       1.0000    0.35744   0.58496   0.48887   Biso      1.000     H          0.08555399999999999           
         H44       1.0000    0.64256   0.13143   0.22752   Biso      1.000     H          0.084073  
         H45       1.0000    0.22752   0.64256   0.13143   Biso      1.000     H          0.08542899999999999           
         H46       1.0000    0.48887   0.35744   0.58496   Biso      1.000     H          0.086253  
         H47       1.0000    0.77248   0.90391   0.41504   Biso      1.000     H          0.084846  
         H48       1.0000    0.86857   0.51113   0.09608   Biso      1.000     H          0.08666900000000001           
         H49       1.0000    0.51113   0.09608   0.86857   Biso      1.000     H          0.084391  
         H50       1.0000    0.48887   0.58496   0.35744   Biso      1.000     H          0.084379  
         H51       1.0000    0.77248   0.41504   0.90391   Biso      1.000     H          0.085204  
         H52       1.0000    0.51113   0.86857   0.09608   Biso      1.000     H          0.086259  
         H53       1.0000    0.58496   0.35744   0.48887   Biso      1.000     H          0.084886  
         H54       1.0000    0.13143   0.64256   0.22752   Biso      1.000     H          0.08494299999999999           
         H55       1.0000    0.86857   0.09608   0.51113   Biso      1.000     H          0.086646  
         H56       1.0000    0.41504   0.90391   0.77248   Biso      1.000     H          0.085408  
         H57       1.0000    0.09608   0.51113   0.86857   Biso      1.000     H          0.087697  
         H58       1.0000    0.90391   0.77248   0.41504   Biso      1.000     H          0.085357  
         H59       1.0000    0.22752   0.13143   0.64256   Biso      1.000     H          0.085168  
         H60       1.0000    0.58496   0.48887   0.35744   Biso      1.000     H          0.08527   
         N1        1.0000    0.56450   0.65020   0.27510   Biso      1.000     N          -0.362624           
         N2        1.0000    0.65020   0.56450   0.27510   Biso      1.000     N          -0.36405  
         N3        1.0000    0.62490   0.34980   0.91430   Biso      1.000     N          -0.364561           
         N4        1.0000    0.43550   0.08570   0.71060   Biso      1.000     N          -0.362618           
         N5        1.0000    0.65020   0.27510   0.56450   Biso      1.000     N          -0.36246300000000004          
         N6        1.0000    0.28940   0.72490   0.37510   Biso      1.000     N          -0.363083           
         N7        1.0000    0.71060   0.08570   0.43550   Biso      1.000     N          -0.364248           
         N8        1.0000    0.34980   0.91430   0.62490   Biso      1.000     N          -0.364592           
         N9        1.0000    0.08570   0.43550   0.71060   Biso      1.000     N          -0.366627           
         N10       1.0000    0.91430   0.62490   0.34980   Biso      1.000     N          -0.36280100000000004          
         N11       1.0000    0.27510   0.56450   0.65020   Biso      1.000     N          -0.36339899999999997          
         N12       1.0000    0.37510   0.28940   0.72490   Biso      1.000     N          -0.36357399999999995          
         N13       1.0000    0.72490   0.37510   0.28940   Biso      1.000     N          -0.363223           
         N14       1.0000    0.56450   0.27510   0.65020   Biso      1.000     N          -0.365786           
         N15       1.0000    0.37510   0.72490   0.28940   Biso      1.000     N          -0.364257           
         N16       1.0000    0.72490   0.28940   0.37510   Biso      1.000     N          -0.36249899999999996          
         N17       1.0000    0.27510   0.65020   0.56450   Biso      1.000     N          -0.364089           
         N18       1.0000    0.91430   0.34980   0.62490   Biso      1.000     N          -0.364648           
         N19       1.0000    0.08570   0.71060   0.43550   Biso      1.000     N          -0.36434  
         N20       1.0000    0.34980   0.62490   0.91430   Biso      1.000     N          -0.363229           
         N21       1.0000    0.71060   0.43550   0.08570   Biso      1.000     N          -0.36351500000000003          
         N22       1.0000    0.28940   0.37510   0.72490   Biso      1.000     N          -0.363668           
         N23       1.0000    0.62490   0.91430   0.34980   Biso      1.000     N          -0.36393400000000004          
         N24       1.0000    0.43550   0.71060   0.08570   Biso      1.000     N          -0.365744 