
##########################################################################
#               Crystallographic Information Format file
#               Produced by PyCifRW module
#
#  This is a CIF file.  CIF has been adopted by the International
#  Union of Crystallography as the standard for data archiving and
#  transmission.
#
#  For information on this file format, follow the CIF links at
#  http://www.iucr.org
##########################################################################

data_image0

_cell_length_a                          19.6812
_cell_length_b                          7.7005
_cell_length_c                          6.778
_cell_angle_alpha                       90
_cell_angle_beta                        75.4997
_cell_angle_gamma                       90
_symmetry_space_group_name_H-M          'P 1'
_symmetry_int_tables_number             1
loop_
  _symmetry_equiv_pos_as_xyz
         'x, y, z' 
loop_
  _atom_site_label
  _atom_site_occupancy
  _atom_site_fract_x
  _atom_site_fract_y
  _atom_site_fract_z
  _atom_site_thermal_displace_type
  _atom_site_B_iso_or_equiv
  _atom_site_type_symbol
  _atom_site_charge
         C1        1.0000    0.89340   0.17010   0.82860   Biso      1.000     C          0.6340939999999999  
         C2        1.0000    0.72820   0.69950   0.69960   Biso      1.000     C          -0.100622           
         C3        1.0000    0.70260   0.76190   0.38310   Biso      1.000     C          -0.09295  
         C4        1.0000    0.68080   0.71140   0.58270   Biso      1.000     C          -0.021806           
         C5        1.0000    0.31920   0.28860   0.41730   Biso      1.000     C          -0.021813           
         C6        1.0000    0.29740   0.23810   0.61690   Biso      1.000     C          -0.092939           
         C7        1.0000    0.27180   0.30050   0.30040   Biso      1.000     C          -0.100619           
         C8        1.0000    0.39340   0.32990   0.32860   Biso      1.000     C          0.634081  
         C9        1.0000    0.31920   0.71140   0.91730   Biso      1.000     C          -0.021815           
         C10       1.0000    0.10660   0.17010   0.67140   Biso      1.000     C          0.6340979999999999  
         C11       1.0000    0.20260   0.26190   0.38310   Biso      1.000     C          -0.09295  
         C12       1.0000    0.81920   0.21140   0.91730   Biso      1.000     C          -0.021842           
         C13       1.0000    0.79740   0.26190   0.11690   Biso      1.000     C          -0.092948           
         C14       1.0000    0.77180   0.19950   0.80040   Biso      1.000     C          -0.10062  
         C15       1.0000    0.18080   0.21140   0.58270   Biso      1.000     C          -0.021834           
         C16       1.0000    0.39340   0.67010   0.82860   Biso      1.000     C          0.634081  
         C17       1.0000    0.27180   0.69950   0.80040   Biso      1.000     C          -0.100623           
         C18       1.0000    0.22820   0.19950   0.69960   Biso      1.000     C          -0.10061200000000001          
         C19       1.0000    0.77180   0.80050   0.30040   Biso      1.000     C          -0.100608           
         C20       1.0000    0.89340   0.82990   0.32860   Biso      1.000     C          0.634101  
         C21       1.0000    0.81920   0.78860   0.41730   Biso      1.000     C          -0.021844           
         C22       1.0000    0.18080   0.78860   0.08270   Biso      1.000     C          -0.021842           
         C23       1.0000    0.20260   0.73810   0.88310   Biso      1.000     C          -0.092942           
         C24       1.0000    0.22820   0.80050   0.19960   Biso      1.000     C          -0.100621           
         C25       1.0000    0.10660   0.82990   0.17140   Biso      1.000     C          0.6341    
         C26       1.0000    0.79740   0.73810   0.61690   Biso      1.000     C          -0.09293799999999999          
         C27       1.0000    0.68080   0.28860   0.08270   Biso      1.000     C          -0.021815           
         C28       1.0000    0.70260   0.23810   0.88310   Biso      1.000     C          -0.092936           
         C29       1.0000    0.29740   0.76190   0.11690   Biso      1.000     C          -0.092935           
         C30       1.0000    0.60660   0.32990   0.17140   Biso      1.000     C          0.634077  
         C31       1.0000    0.60660   0.67010   0.67140   Biso      1.000     C          0.634084  
         C32       1.0000    0.72820   0.30050   0.19960   Biso      1.000     C          -0.100614           
         Cr1       1.0000    0.00000   0.00000   0.00000   Biso      1.000     Cr          1.597423  
         Cr2       1.0000    0.50000   0.50000   0.00000   Biso      1.000     Cr          1.597465  
         Cr3       1.0000    0.00000   0.00000   0.50000   Biso      1.000     Cr          1.597485  
         Cr4       1.0000    0.50000   0.50000   0.50000   Biso      1.000     Cr          1.597485  
         H1        1.0000    0.66870   0.77040   0.29940   Biso      1.000     H          0.123912  
         H2        1.0000    0.71250   0.66340   0.84260   Biso      1.000     H          0.117771  
         H3        1.0000    0.50000   0.25094   0.75000   Biso      1.000     H          0.435275  
         H4        1.0000    0.00000   0.24906   0.25000   Biso      1.000     H          0.43529799999999996           
         H5        1.0000    0.50000   0.74906   0.25000   Biso      1.000     H          0.435276  
         H6        1.0000    0.21250   0.16340   0.84260   Biso      1.000     H          0.11776600000000001           
         H7        1.0000    0.16870   0.27040   0.29940   Biso      1.000     H          0.123903  
         H8        1.0000    0.00000   0.75094   0.75000   Biso      1.000     H          0.4353    
         H9        1.0000    0.16870   0.72960   0.79940   Biso      1.000     H          0.123899  
         H10       1.0000    0.33130   0.77040   0.20060   Biso      1.000     H          0.12390799999999999           
         H11       1.0000    0.28750   0.66340   0.65740   Biso      1.000     H          0.11776800000000001           
         H12       1.0000    0.83130   0.72960   0.70060   Biso      1.000     H          0.12389700000000001           
         H13       1.0000    0.33130   0.22960   0.70060   Biso      1.000     H          0.12390999999999999           
         H14       1.0000    0.28750   0.33660   0.15740   Biso      1.000     H          0.11777   
         H15       1.0000    0.71250   0.33660   0.34260   Biso      1.000     H          0.117769  
         H16       1.0000    0.78750   0.83660   0.15740   Biso      1.000     H          0.11776500000000001           
         H17       1.0000    0.66870   0.22960   0.79940   Biso      1.000     H          0.123911  
         H18       1.0000    0.78750   0.16340   0.65740   Biso      1.000     H          0.11776400000000001           
         H19       1.0000    0.21250   0.83660   0.34260   Biso      1.000     H          0.11776400000000001           
         H20       1.0000    0.83130   0.27040   0.20060   Biso      1.000     H          0.123895  
         O1        1.0000    0.08620   0.87490   0.35710   Biso      1.000     O          -0.5862189999999999           
         O2        1.0000    0.56280   0.32070   0.06240   Biso      1.000     O          -0.613827           
         O3        1.0000    0.58620   0.37490   0.35710   Biso      1.000     O          -0.586222           
         O4        1.0000    0.06280   0.82070   0.06240   Biso      1.000     O          -0.613839           
         O5        1.0000    0.00000   0.88080   0.75000   Biso      1.000     O          -0.95337  
         O6        1.0000    0.50000   0.38080   0.75000   Biso      1.000     O          -0.953413           
         O7        1.0000    0.58620   0.62510   0.85710   Biso      1.000     O          -0.586218           
         O8        1.0000    0.93720   0.82070   0.43760   Biso      1.000     O          -0.613835           
         O9        1.0000    0.91380   0.87490   0.14290   Biso      1.000     O          -0.586203           
         O10       1.0000    0.43720   0.32070   0.43760   Biso      1.000     O          -0.613845           
         O11       1.0000    0.08620   0.12510   0.85710   Biso      1.000     O          -0.586213           
         O12       1.0000    0.06280   0.17930   0.56240   Biso      1.000     O          -0.613834           
         O13       1.0000    0.41380   0.37490   0.14290   Biso      1.000     O          -0.586225           
         O14       1.0000    0.00000   0.11920   0.25000   Biso      1.000     O          -0.9533729999999999           
         O15       1.0000    0.93720   0.17930   0.93760   Biso      1.000     O          -0.613834           
         O16       1.0000    0.91380   0.12510   0.64290   Biso      1.000     O          -0.586212           
         O17       1.0000    0.41380   0.62510   0.64290   Biso      1.000     O          -0.586233           
         O18       1.0000    0.43720   0.67930   0.93760   Biso      1.000     O          -0.613847           
         O19       1.0000    0.56280   0.67930   0.56240   Biso      1.000     O          -0.6138359999999999           
         O20       1.0000    0.50000   0.61920   0.25000   Biso      1.000     O          -0.953414 