
##########################################################################
#               Crystallographic Information Format file
#               Produced by PyCifRW module
#
#  This is a CIF file.  CIF has been adopted by the International
#  Union of Crystallography as the standard for data archiving and
#  transmission.
#
#  For information on this file format, follow the CIF links at
#  http://www.iucr.org
##########################################################################

data_image0

_cell_length_a                          16.0871
_cell_length_b                          8.5505
_cell_length_c                          17.1886
_cell_angle_alpha                       90
_cell_angle_beta                        129.569
_cell_angle_gamma                       90
_symmetry_space_group_name_H-M          'P 1'
_symmetry_int_tables_number             1
loop_
  _symmetry_equiv_pos_as_xyz
         'x, y, z' 
loop_
  _atom_site_label
  _atom_site_occupancy
  _atom_site_fract_x
  _atom_site_fract_y
  _atom_site_fract_z
  _atom_site_thermal_displace_type
  _atom_site_B_iso_or_equiv
  _atom_site_type_symbol
  _atom_site_charge
         C1        1.0000    0.68640   0.90580   0.77510   Biso      1.000     C          0.449677  
         C2        1.0000    0.24610   0.40760   0.68100   Biso      1.000     C          0.44662   
         C3        1.0000    0.18640   0.40580   0.77510   Biso      1.000     C          0.449677  
         C4        1.0000    0.68640   0.09420   0.27510   Biso      1.000     C          0.449676  
         C5        1.0000    0.74610   0.09240   0.18100   Biso      1.000     C          0.446622  
         C6        1.0000    0.75390   0.59240   0.31900   Biso      1.000     C          0.446619  
         C7        1.0000    0.81360   0.59420   0.22490   Biso      1.000     C          0.449677  
         C8        1.0000    0.31360   0.90580   0.72490   Biso      1.000     C          0.449677  
         C9        1.0000    0.25390   0.90760   0.81900   Biso      1.000     C          0.446622  
         C10       1.0000    0.25390   0.09240   0.31900   Biso      1.000     C          0.446622  
         C11       1.0000    0.31360   0.09420   0.22490   Biso      1.000     C          0.449675  
         C12       1.0000    0.81360   0.40580   0.72490   Biso      1.000     C          0.449677  
         C13       1.0000    0.74610   0.90760   0.68100   Biso      1.000     C          0.44662   
         C14       1.0000    0.18640   0.59420   0.27510   Biso      1.000     C          0.449677  
         C15       1.0000    0.24610   0.59240   0.18100   Biso      1.000     C          0.446623  
         C16       1.0000    0.75390   0.40760   0.81900   Biso      1.000     C          0.44662   
         H1        1.0000    0.45796   0.79291   0.94072   Biso      1.000     H          0.373517  
         H2        1.0000    0.45796   0.20709   0.44072   Biso      1.000     H          0.373516  
         H3        1.0000    0.40865   0.20927   0.57795   Biso      1.000     H          0.350323  
         H4        1.0000    0.95796   0.70709   0.44072   Biso      1.000     H          0.373516  
         H5        1.0000    0.04204   0.70709   0.05928   Biso      1.000     H          0.373516  
         H6        1.0000    0.90865   0.29073   0.07795   Biso      1.000     H          0.350322  
         H7        1.0000    0.04204   0.29291   0.55928   Biso      1.000     H          0.373516  
         H8        1.0000    0.40865   0.79073   0.07795   Biso      1.000     H          0.350322  
         H9        1.0000    0.90865   0.70927   0.57795   Biso      1.000     H          0.350322  
         H10       1.0000    0.09135   0.29073   0.42205   Biso      1.000     H          0.350322  
         H11       1.0000    0.95796   0.29291   0.94072   Biso      1.000     H          0.373516  
         H12       1.0000    0.54204   0.20709   0.05928   Biso      1.000     H          0.373517  
         H13       1.0000    0.59135   0.79073   0.42205   Biso      1.000     H          0.350323  
         H14       1.0000    0.09135   0.70927   0.92205   Biso      1.000     H          0.350322  
         H15       1.0000    0.59135   0.20927   0.92205   Biso      1.000     H          0.350323  
         H16       1.0000    0.54204   0.79291   0.55928   Biso      1.000     H          0.373517  
         N1        1.0000    0.83440   0.81360   0.74150   Biso      1.000     N          -0.318958           
         N2        1.0000    0.66560   0.31360   0.75850   Biso      1.000     N          -0.318959           
         N3        1.0000    0.66620   0.87930   0.88450   Biso      1.000     N          -0.065877           
         N4        1.0000    0.62320   0.30120   0.80510   Biso      1.000     N          -0.045601           
         N5        1.0000    0.16620   0.37930   0.88450   Biso      1.000     N          -0.065877           
         N6        1.0000    0.67930   0.37990   0.88850   Biso      1.000     N          -0.076552           
         N7        1.0000    0.76150   0.44760   0.89990   Biso      1.000     N          -0.314172           
         N8        1.0000    0.73910   0.30030   0.65610   Biso      1.000     N          -0.301377           
         N9        1.0000    0.62660   0.95640   0.79860   Biso      1.000     N          -0.282181           
         N10       1.0000    0.17740   0.46130   0.69410   Biso      1.000     N          -0.538824           
         N11       1.0000    0.75390   0.28730   0.58770   Biso      1.000     N          -0.034247           
         N12       1.0000    0.83380   0.37930   0.61550   Biso      1.000     N          -0.065833           
         N13       1.0000    0.12660   0.45640   0.79860   Biso      1.000     N          -0.282181           
         N14       1.0000    0.87680   0.80120   0.69490   Biso      1.000     N          -0.045601           
         N15       1.0000    0.87340   0.45640   0.70140   Biso      1.000     N          -0.282186           
         N16       1.0000    0.82070   0.87990   0.61150   Biso      1.000     N          -0.076552           
         N17       1.0000    0.73850   0.94760   0.60010   Biso      1.000     N          -0.314171           
         N18       1.0000    0.32260   0.96130   0.80590   Biso      1.000     N          -0.538824           
         N19       1.0000    0.37340   0.95640   0.70140   Biso      1.000     N          -0.282201           
         N20       1.0000    0.33380   0.87930   0.61550   Biso      1.000     N          -0.065853           
         N21       1.0000    0.25390   0.78730   0.58770   Biso      1.000     N          -0.034232           
         N22       1.0000    0.23910   0.80030   0.65610   Biso      1.000     N          -0.301357           
         N23       1.0000    0.33440   0.31360   0.74150   Biso      1.000     N          -0.318958           
         N24       1.0000    0.26150   0.94760   0.89990   Biso      1.000     N          -0.314198           
         N25       1.0000    0.82260   0.46130   0.80590   Biso      1.000     N          -0.538824           
         N26       1.0000    0.37680   0.30120   0.69490   Biso      1.000     N          -0.045601           
         N27       1.0000    0.12320   0.80120   0.80510   Biso      1.000     N          -0.045607           
         N28       1.0000    0.16560   0.81360   0.75850   Biso      1.000     N          -0.318955           
         N29       1.0000    0.32070   0.37990   0.61150   Biso      1.000     N          -0.076552           
         N30       1.0000    0.23850   0.44760   0.60010   Biso      1.000     N          -0.314172           
         N31       1.0000    0.76090   0.80030   0.84390   Biso      1.000     N          -0.30138  
         N32       1.0000    0.74610   0.78730   0.91230   Biso      1.000     N          -0.034206           
         N33       1.0000    0.26090   0.30030   0.84390   Biso      1.000     N          -0.30138  
         N34       1.0000    0.17930   0.87990   0.88850   Biso      1.000     N          -0.076528           
         N35       1.0000    0.24610   0.28730   0.91230   Biso      1.000     N          -0.034206           
         N36       1.0000    0.33380   0.12070   0.11550   Biso      1.000     N          -0.065874           
         N37       1.0000    0.67740   0.03870   0.19410   Biso      1.000     N          -0.538823           
         N38       1.0000    0.67930   0.62010   0.38850   Biso      1.000     N          -0.076589           
         N39       1.0000    0.62320   0.69880   0.30510   Biso      1.000     N          -0.045563           
         N40       1.0000    0.66560   0.68640   0.25850   Biso      1.000     N          -0.318959           
         N41       1.0000    0.23850   0.55240   0.10010   Biso      1.000     N          -0.314198           
         N42       1.0000    0.26090   0.69970   0.34390   Biso      1.000     N          -0.301376           
         N43       1.0000    0.24610   0.71270   0.41230   Biso      1.000     N          -0.034247           
         N44       1.0000    0.16620   0.62070   0.38450   Biso      1.000     N          -0.065833           
         N45       1.0000    0.76150   0.55240   0.39990   Biso      1.000     N          -0.314167           
         N46       1.0000    0.62660   0.04360   0.29860   Biso      1.000     N          -0.282206           
         N47       1.0000    0.12660   0.54360   0.29860   Biso      1.000     N          -0.282185           
         N48       1.0000    0.17740   0.53870   0.19410   Biso      1.000     N          -0.538823           
         N49       1.0000    0.74610   0.21270   0.41230   Biso      1.000     N          -0.034274           
         N50       1.0000    0.76090   0.19970   0.34390   Biso      1.000     N          -0.301353           
         N51       1.0000    0.73850   0.05240   0.10010   Biso      1.000     N          -0.314194           
         N52       1.0000    0.82070   0.12010   0.11150   Biso      1.000     N          -0.076566           
         N53       1.0000    0.87680   0.19880   0.19490   Biso      1.000     N          -0.045566           
         N54       1.0000    0.66620   0.12070   0.38450   Biso      1.000     N          -0.065809           
         N55       1.0000    0.83440   0.18640   0.24150   Biso      1.000     N          -0.318959           
         N56       1.0000    0.73910   0.69970   0.15610   Biso      1.000     N          -0.30138  
         N57       1.0000    0.83380   0.62070   0.11550   Biso      1.000     N          -0.065876           
         N58       1.0000    0.32260   0.03870   0.30590   Biso      1.000     N          -0.538824           
         N59       1.0000    0.37340   0.04360   0.20140   Biso      1.000     N          -0.28218  
         N60       1.0000    0.25390   0.21270   0.08770   Biso      1.000     N          -0.03423  
         N61       1.0000    0.23910   0.19970   0.15610   Biso      1.000     N          -0.301357           
         N62       1.0000    0.26150   0.05240   0.39990   Biso      1.000     N          -0.314193           
         N63       1.0000    0.17930   0.12010   0.38850   Biso      1.000     N          -0.076566           
         N64       1.0000    0.12320   0.19880   0.30510   Biso      1.000     N          -0.045566           
         N65       1.0000    0.75390   0.71270   0.08770   Biso      1.000     N          -0.034206           
         N66       1.0000    0.16560   0.18640   0.25850   Biso      1.000     N          -0.318959           
         N67       1.0000    0.33440   0.68640   0.24150   Biso      1.000     N          -0.318958           
         N68       1.0000    0.37680   0.69880   0.19490   Biso      1.000     N          -0.045604           
         N69       1.0000    0.32070   0.62010   0.11150   Biso      1.000     N          -0.076528           
         N70       1.0000    0.82260   0.53870   0.30590   Biso      1.000     N          -0.538824           
         N71       1.0000    0.87340   0.54360   0.20140   Biso      1.000     N          -0.282181           
         N72       1.0000    0.67740   0.96130   0.69410   Biso      1.000     N          -0.538824           
         O1        1.0000    0.03860   0.68370   0.48880   Biso      1.000     O          -0.834733           
         O2        1.0000    0.96510   0.62740   0.61160   Biso      1.000     O          -0.780474           
         O3        1.0000    0.96510   0.37260   0.11160   Biso      1.000     O          -0.780473           
         O4        1.0000    0.53490   0.87260   0.38840   Biso      1.000     O          -0.780475           
         O5        1.0000    0.46140   0.18370   0.01120   Biso      1.000     O          -0.834735           
         O6        1.0000    0.53490   0.12740   0.88840   Biso      1.000     O          -0.780474           
         O7        1.0000    0.46140   0.81630   0.51120   Biso      1.000     O          -0.834734           
         O8        1.0000    0.46510   0.87260   0.11160   Biso      1.000     O          -0.780474           
         O9        1.0000    0.53860   0.81630   0.98880   Biso      1.000     O          -0.834734           
         O10       1.0000    0.53860   0.18370   0.48880   Biso      1.000     O          -0.834732           
         O11       1.0000    0.96140   0.68370   0.01120   Biso      1.000     O          -0.834734           
         O12       1.0000    0.03490   0.62740   0.88840   Biso      1.000     O          -0.780474           
         O13       1.0000    0.03490   0.37260   0.38840   Biso      1.000     O          -0.780474           
         O14       1.0000    0.96140   0.31630   0.51120   Biso      1.000     O          -0.834733           
         O15       1.0000    0.46510   0.12740   0.61160   Biso      1.000     O          -0.780475           
         O16       1.0000    0.03860   0.31630   0.98880   Biso      1.000     O          -0.834734           
         Zn1       1.0000    0.00000   0.37327   0.25000   Biso      1.000     Zn          0.686701  
         Zn2       1.0000    0.50000   0.87327   0.25000   Biso      1.000     Zn          0.686706  
         Zn3       1.0000    0.10716   0.31985   0.13437   Biso      1.000     Zn          0.820182  
         Zn4       1.0000    0.12614   0.43548   0.97128   Biso      1.000     Zn          0.80929   
         Zn5       1.0000    0.60716   0.18015   0.63437   Biso      1.000     Zn          0.820184  
         Zn6       1.0000    0.87386   0.43548   0.52872   Biso      1.000     Zn          0.809285  
         Zn7       1.0000    0.10716   0.68015   0.63437   Biso      1.000     Zn          0.820181  
         Zn8       1.0000    0.62614   0.93548   0.97128   Biso      1.000     Zn          0.809288  
         Zn9       1.0000    0.39284   0.18015   0.86563   Biso      1.000     Zn          0.820184  
         Zn10      1.0000    0.00000   0.62673   0.75000   Biso      1.000     Zn          0.686708  
         Zn11      1.0000    0.89284   0.68015   0.86563   Biso      1.000     Zn          0.820183  
         Zn12      1.0000    0.62614   0.06452   0.47128   Biso      1.000     Zn          0.809281  
         Zn13      1.0000    0.39284   0.81985   0.36563   Biso      1.000     Zn          0.820184  
         Zn14      1.0000    0.12614   0.56452   0.47128   Biso      1.000     Zn          0.809283  
         Zn15      1.0000    0.89284   0.31985   0.36563   Biso      1.000     Zn          0.820181  
         Zn16      1.0000    0.37386   0.06452   0.02872   Biso      1.000     Zn          0.809288  
         Zn17      1.0000    0.60716   0.81985   0.13437   Biso      1.000     Zn          0.820184  
         Zn18      1.0000    0.87386   0.56452   0.02872   Biso      1.000     Zn          0.809286  
         Zn19      1.0000    0.37386   0.93548   0.52872   Biso      1.000     Zn          0.809289  
         Zn20      1.0000    0.50000   0.12673   0.75000   Biso      1.000     Zn          0.686709 