
##########################################################################
#               Crystallographic Information Format file
#               Produced by PyCifRW module
#
#  This is a CIF file.  CIF has been adopted by the International
#  Union of Crystallography as the standard for data archiving and
#  transmission.
#
#  For information on this file format, follow the CIF links at
#  http://www.iucr.org
##########################################################################

data_image0

_cell_length_a                          5.2351
_cell_length_b                          18.9281
_cell_length_c                          18.9281
_cell_angle_alpha                       88.9042
_cell_angle_beta                        82.0512
_cell_angle_gamma                       82.0513
_symmetry_space_group_name_H-M          'P 1'
_symmetry_int_tables_number             1
loop_
  _symmetry_equiv_pos_as_xyz
         'x, y, z' 
loop_
  _atom_site_label
  _atom_site_occupancy
  _atom_site_fract_x
  _atom_site_fract_y
  _atom_site_fract_z
  _atom_site_thermal_displace_type
  _atom_site_B_iso_or_equiv
  _atom_site_type_symbol
  _atom_site_charge
         C1        1.0000    0.78623   0.18999   0.02455   Biso      1.000     C          -0.100667           
         C2        1.0000    0.90640   0.74607   0.98093   Biso      1.000     C          -0.163493           
         C3        1.0000    0.68300   0.73726   0.03114   Biso      1.000     C          0.075632  
         C4        1.0000    0.58637   0.67147   0.03799   Biso      1.000     C          -0.240531           
         C5        1.0000    0.38017   0.66560   0.09026   Biso      1.000     C          0.145404  
         C6        1.0000    0.07534   0.62713   0.16419   Biso      1.000     C          0.183236  
         C7        1.0000    0.27826   0.21206   0.86902   Biso      1.000     C          -0.237501           
         C8        1.0000    0.00077   0.81001   0.97545   Biso      1.000     C          -0.099387           
         C9        1.0000    0.13107   0.27707   0.86279   Biso      1.000     C          0.112177  
         C10       1.0000    0.85260   0.31210   0.69750   Biso      1.000     C          -0.177385           
         C11       1.0000    0.82320   0.28070   0.63290   Biso      1.000     C          -0.048805           
         C12       1.0000    0.79959   0.20604   0.63378   Biso      1.000     C          -0.022741           
         C13       1.0000    0.82680   0.16750   0.69170   Biso      1.000     C          -0.107206           
         C14       1.0000    0.86461   0.19963   0.75495   Biso      1.000     C          -0.19388  
         C15       1.0000    0.74090   0.17000   0.56820   Biso      1.000     C          0.57347   
         C16       1.0000    0.89676   0.27046   0.75442   Biso      1.000     C          0.192606  
         C17       1.0000    0.88149   0.86777   0.01945   Biso      1.000     C          -0.096376           
         C18       1.0000    0.67252   0.86126   0.06850   Biso      1.000     C          -0.159721           
         C19       1.0000    0.56733   0.79516   0.07738   Biso      1.000     C          0.086642  
         C20       1.0000    0.43987   0.20484   0.92262   Biso      1.000     C          0.085755  
         C21       1.0000    0.63340   0.25393   0.01907   Biso      1.000     C          -0.161215           
         C22       1.0000    0.45140   0.26274   0.96886   Biso      1.000     C          0.075327  
         C23       1.0000    0.29583   0.32853   0.96201   Biso      1.000     C          -0.242281           
         C24       1.0000    0.13603   0.33440   0.90974   Biso      1.000     C          0.151707  
         C25       1.0000    0.86666   0.37287   0.83581   Biso      1.000     C          0.184006  
         C26       1.0000    0.47910   0.83000   0.43180   Biso      1.000     C          0.567258  
         C27       1.0000    0.81919   0.80037   0.24505   Biso      1.000     C          -0.195505           
         C28       1.0000    0.68600   0.83250   0.30830   Biso      1.000     C          -0.109543           
         C29       1.0000    0.63941   0.79396   0.36622   Biso      1.000     C          -0.019264           
         C30       1.0000    0.73680   0.71930   0.36710   Biso      1.000     C          -0.04951  
         C31       1.0000    0.86220   0.68790   0.30250   Biso      1.000     C          -0.178156           
         C32       1.0000    0.92164   0.72954   0.24558   Biso      1.000     C          0.192152  
         C33       1.0000    0.27093   0.72293   0.13721   Biso      1.000     C          0.11488   
         C34       1.0000    0.35934   0.78794   0.13098   Biso      1.000     C          -0.239691           
         C35       1.0000    0.76047   0.16419   0.37287   Biso      1.000     C          0.171789  
         C36       1.0000    0.52957   0.09026   0.33440   Biso      1.000     C          0.153201  
         C37       1.0000    0.37564   0.03799   0.32853   Biso      1.000     C          -0.230685           
         C38       1.0000    0.28586   0.03114   0.26274   Biso      1.000     C          0.076571  
         C39       1.0000    0.34753   0.01907   0.74607   Biso      1.000     C          -0.150913           
         C40       1.0000    0.18922   0.02455   0.81001   Biso      1.000     C          -0.108935           
         C41       1.0000    0.25074   0.98055   0.86777   Biso      1.000     C          -0.09798  
         C42       1.0000    0.46622   0.93150   0.86126   Biso      1.000     C          -0.164268           
         C43       1.0000    0.63751   0.92262   0.79516   Biso      1.000     C          0.08466   
         C44       1.0000    0.85272   0.86902   0.78794   Biso      1.000     C          -0.241101           
         C45       1.0000    0.76871   0.13223   0.98055   Biso      1.000     C          -0.093209           
         C46       1.0000    0.00614   0.86279   0.72293   Biso      1.000     C          0.112563  
         C47       1.0000    0.44990   0.69750   0.68790   Biso      1.000     C          -0.179365           
         C48       1.0000    0.54390   0.63290   0.71930   Biso      1.000     C          -0.046618           
         C49       1.0000    0.56663   0.63378   0.79396   Biso      1.000     C          -0.015789           
         C50       1.0000    0.48150   0.69170   0.83250   Biso      1.000     C          -0.116169           
         C51       1.0000    0.38044   0.75495   0.80037   Biso      1.000     C          -0.196852           
         C52       1.0000    0.69090   0.56820   0.83000   Biso      1.000     C          0.577661  
         C53       1.0000    0.34882   0.75442   0.72954   Biso      1.000     C          0.191506  
         C54       1.0000    0.74216   0.96201   0.67147   Biso      1.000     C          -0.231241           
         C55       1.0000    0.57974   0.96886   0.73726   Biso      1.000     C          0.075267  
         C56       1.0000    0.29753   0.83581   0.62713   Biso      1.000     C          0.179167  
         C57       1.0000    0.11267   0.98093   0.25393   Biso      1.000     C          -0.149727           
         C58       1.0000    0.02378   0.97545   0.18999   Biso      1.000     C          -0.1105   
         C59       1.0000    0.09906   0.01945   0.13223   Biso      1.000     C          -0.098246           
         C60       1.0000    0.25898   0.06850   0.13874   Biso      1.000     C          -0.163138           
         C61       1.0000    0.35529   0.07738   0.20484   Biso      1.000     C          0.084642  
         C62       1.0000    0.95423   0.90974   0.66560   Biso      1.000     C          0.151337  
         C63       1.0000    0.59186   0.13721   0.27707   Biso      1.000     C          0.113564  
         C64       1.0000    0.50968   0.13098   0.21206   Biso      1.000     C          -0.242073           
         C65       1.0000    0.83530   0.30250   0.31210   Biso      1.000     C          -0.182858           
         C66       1.0000    0.89610   0.36710   0.28070   Biso      1.000     C          -0.049047           
         C67       1.0000    0.99437   0.36622   0.20604   Biso      1.000     C          -0.011991           
         C68       1.0000    0.00570   0.30830   0.16750   Biso      1.000     C          -0.115912           
         C69       1.0000    0.93576   0.24505   0.19963   Biso      1.000     C          -0.198881           
         C70       1.0000    0.08910   0.43180   0.17000   Biso      1.000     C          0.57514   
         C71       1.0000    0.83278   0.24558   0.27046   Biso      1.000     C          0.19346   
         C72       1.0000    0.60228   0.13874   0.93150   Biso      1.000     C          -0.160343           
         H1        1.0000    0.65790   0.42205   0.03092   Biso      1.000     H          0.347353  
         H2        1.0000    0.15642   0.07803   0.53015   Biso      1.000     H          0.350098  
         H3        1.0000    0.86721   0.91725   0.47590   Biso      1.000     H          0.379353  
         H4        1.0000    0.33430   0.79770   0.82730   Biso      1.000     H          0.105889  
         H5        1.0000    0.84140   0.36250   0.70110   Biso      1.000     H          0.143517  
         H6        1.0000    0.27090   0.17350   0.83830   Biso      1.000     H          0.13138   
         H7        1.0000    0.59280   0.09900   0.90260   Biso      1.000     H          0.117614  
         H8        1.0000    0.87550   0.08800   0.98540   Biso      1.000     H          0.101208  
         H9        1.0000    0.90570   0.18440   0.05840   Biso      1.000     H          0.100246  
         H10       1.0000    0.64830   0.29260   0.04880   Biso      1.000     H          0.114793  
         H11       1.0000    0.30080   0.36760   0.99240   Biso      1.000     H          0.131609  
         H12       1.0000    0.74410   0.40290   0.81230   Biso      1.000     H          0.120168  
         H13       1.0000    0.83840   0.82730   0.20230   Biso      1.000     H          0.107253  
         H14       1.0000    0.16270   0.57795   0.96908   Biso      1.000     H          0.357759  
         H15       1.0000    0.71690   0.69210   0.40970   Biso      1.000     H          0.131625  
         H16       1.0000    0.90500   0.63750   0.29890   Biso      1.000     H          0.142642  
         H17       1.0000    0.28270   0.82650   0.16170   Biso      1.000     H          0.132455  
         H18       1.0000    0.59440   0.90100   0.09740   Biso      1.000     H          0.117731  
         H19       1.0000    0.94890   0.91200   0.01460   Biso      1.000     H          0.102243  
         H20       1.0000    0.14850   0.81560   0.94160   Biso      1.000     H          0.099016  
         H21       1.0000    0.98970   0.70740   0.95120   Biso      1.000     H          0.115351  
         H22       1.0000    0.66080   0.63240   0.00760   Biso      1.000     H          0.133361  
         H23       1.0000    0.95930   0.59710   0.18770   Biso      1.000     H          0.121616  
         H24       1.0000    0.81870   0.30790   0.59030   Biso      1.000     H          0.132618  
         H25       1.0000    0.82070   0.11760   0.69060   Biso      1.000     H          0.110727  
         H26       1.0000    0.62890   0.88240   0.30940   Biso      1.000     H          0.111645  
         H27       1.0000    0.85300   0.18770   0.40290   Biso      1.000     H          0.11804   
         H28       1.0000    0.86800   0.17270   0.79770   Biso      1.000     H          0.107463  
         H29       1.0000    0.48870   0.69060   0.88240   Biso      1.000     H          0.106318  
         H30       1.0000    0.59100   0.59030   0.69210   Biso      1.000     H          0.13078   
         H31       1.0000    0.45750   0.70110   0.63750   Biso      1.000     H          0.140843  
         H32       1.0000    0.89080   0.83830   0.82650   Biso      1.000     H          0.131615  
         H33       1.0000    0.50460   0.90260   0.90100   Biso      1.000     H          0.117212  
         H34       1.0000    0.13910   0.98540   0.91200   Biso      1.000     H          0.099967  
         H35       1.0000    0.03590   0.05840   0.81560   Biso      1.000     H          0.098248  
         H36       1.0000    0.30290   0.04880   0.70740   Biso      1.000     H          0.121925  
         H37       1.0000    0.44360   0.81230   0.59710   Biso      1.000     H          0.115534  
         H38       1.0000    0.70680   0.99240   0.63240   Biso      1.000     H          0.136592  
         H39       1.0000    0.06170   0.30940   0.11760   Biso      1.000     H          0.105939  
         H40       1.0000    0.87340   0.40970   0.30790   Biso      1.000     H          0.131548  
         H41       1.0000    0.79610   0.29890   0.36250   Biso      1.000     H          0.141474  
         H42       1.0000    0.55560   0.16170   0.17350   Biso      1.000     H          0.130521  
         H43       1.0000    0.30820   0.09740   0.09900   Biso      1.000     H          0.115886  
         H44       1.0000    0.03650   0.01460   0.08800   Biso      1.000     H          0.099774  
         H45       1.0000    0.90990   0.94160   0.18440   Biso      1.000     H          0.100247  
         H46       1.0000    0.05910   0.95120   0.29260   Biso      1.000     H          0.122318  
         H47       1.0000    0.33160   0.00760   0.36760   Biso      1.000     H          0.136591  
         H48       1.0000    0.95930   0.20230   0.17270   Biso      1.000     H          0.107515  
         N1        1.0000    0.73960   0.18373   0.30387   Biso      1.000     N          -0.057848           
         N2        1.0000    0.22720   0.81627   0.69613   Biso      1.000     N          -0.05696  
         N3        1.0000    0.14306   0.89030   0.60678   Biso      1.000     N          -0.356637           
         N4        1.0000    0.64014   0.10970   0.39322   Biso      1.000     N          -0.360906           
         N5        1.0000    0.25016   0.60678   0.10970   Biso      1.000     N          -0.354621           
         N6        1.0000    0.96664   0.39322   0.89030   Biso      1.000     N          -0.357326           
         N7        1.0000    0.07667   0.69613   0.18373   Biso      1.000     N          -0.058401           
         N8        1.0000    0.95653   0.30387   0.81627   Biso      1.000     N          -0.057392           
         O1        1.0000    0.75610   0.51200   0.78180   Biso      1.000     O          -0.679248           
         O2        1.0000    0.65069   0.55684   0.88818   Biso      1.000     O          -0.50255  
         O3        1.0000    0.31219   0.02991   0.52511   Biso      1.000     O          -0.835771           
         O4        1.0000    0.04990   0.48800   0.21820   Biso      1.000     O          -0.678283           
         O5        1.0000    0.09571   0.44316   0.11182   Biso      1.000     O          -0.496906           
         O6        1.0000    0.86721   0.97009   0.47489   Biso      1.000     O          -0.856003           
         O7        1.0000    0.79247   0.11182   0.55684   Biso      1.000     O          -0.510411           
         O8        1.0000    0.65790   0.47489   0.02991   Biso      1.000     O          -0.803598           
         O9        1.0000    0.46210   0.78180   0.48800   Biso      1.000     O          -0.681105           
         O10       1.0000    0.46113   0.88818   0.44316   Biso      1.000     O          -0.493112           
         O11       1.0000    0.16270   0.52511   0.97009   Biso      1.000     O          -0.822599           
         O12       1.0000    0.73190   0.21820   0.51200   Biso      1.000     O          -0.66545  
         Zn1       1.0000    0.18985   0.94095   0.51149   Biso      1.000     Zn          0.900278  
         Zn2       1.0000    0.64229   0.05905   0.48851   Biso      1.000     Zn          0.973553  
         Zn3       1.0000    0.86920   0.48851   0.94095   Biso      1.000     Zn          0.940197  
         Zn4       1.0000    0.29866   0.51149   0.05905   Biso      1.000     Zn          0.9134 