
##########################################################################
#               Crystallographic Information Format file
#               Produced by PyCifRW module
#
#  This is a CIF file.  CIF has been adopted by the International
#  Union of Crystallography as the standard for data archiving and
#  transmission.
#
#  For information on this file format, follow the CIF links at
#  http://www.iucr.org
##########################################################################

data_image0

_cell_length_a                          8.9364
_cell_length_b                          8.9364
_cell_length_c                          8.9364
_cell_angle_alpha                       60
_cell_angle_beta                        60
_cell_angle_gamma                       60
_symmetry_space_group_name_H-M          'P 1'
_symmetry_int_tables_number             1
loop_
  _symmetry_equiv_pos_as_xyz
         'x, y, z' 
loop_
  _atom_site_label
  _atom_site_occupancy
  _atom_site_fract_x
  _atom_site_fract_y
  _atom_site_fract_z
  _atom_site_thermal_displace_type
  _atom_site_B_iso_or_equiv
  _atom_site_type_symbol
  _atom_site_charge
         C1        1.0000    0.58100   0.47300   0.47300   Biso      1.000     C          -0.052246           
         C2        1.0000    0.97300   0.08100   0.47300   Biso      1.000     C          -0.052246           
         C3        1.0000    0.02700   0.52700   0.91900   Biso      1.000     C          -0.052244000000000006         
         C4        1.0000    0.02700   0.52700   0.52700   Biso      1.000     C          -0.052246           
         Cd1       1.0000    0.87500   0.37500   0.37500   Biso      1.000     Cd          0.70295   
         Cd2       1.0000    0.12500   0.62500   0.62500   Biso      1.000     Cd          0.7029479999999999  
         N1        1.0000    0.97300   0.47300   0.08100   Biso      1.000     N          -0.29923099999999997          
         N2        1.0000    0.97300   0.47300   0.47300   Biso      1.000     N          -0.299228           
         N3        1.0000    0.02700   0.91900   0.52700   Biso      1.000     N          -0.299228           
         N4        1.0000    0.41900   0.52700   0.52700   Biso      1.000     N          -0.299228 