
##########################################################################
#               Crystallographic Information Format file
#               Produced by PyCifRW module
#
#  This is a CIF file.  CIF has been adopted by the International
#  Union of Crystallography as the standard for data archiving and
#  transmission.
#
#  For information on this file format, follow the CIF links at
#  http://www.iucr.org
##########################################################################

data_image0

_cell_length_a                          16.318
_cell_length_b                          16.318
_cell_length_c                          6.508
_cell_angle_alpha                       90
_cell_angle_beta                        90
_cell_angle_gamma                       90
_symmetry_space_group_name_H-M          'P 1'
_symmetry_int_tables_number             1
loop_
  _symmetry_equiv_pos_as_xyz
         'x, y, z' 
loop_
  _atom_site_label
  _atom_site_occupancy
  _atom_site_fract_x
  _atom_site_fract_y
  _atom_site_fract_z
  _atom_site_thermal_displace_type
  _atom_site_B_iso_or_equiv
  _atom_site_type_symbol
  _atom_site_charge
         C1        1.0000    0.60220   0.78460   0.36160   Biso      1.000     C          0.539676  
         C2        1.0000    0.10220   0.71540   0.13840   Biso      1.000     C          0.540295  
         C3        1.0000    0.04220   0.74600   0.28980   Biso      1.000     C          0.000822  
         C4        1.0000    0.89780   0.28460   0.13840   Biso      1.000     C          0.536732  
         C5        1.0000    0.95780   0.25400   0.28980   Biso      1.000     C          0.002163  
         C6        1.0000    0.69160   0.50000   0.06220   Biso      1.000     C          0.43196   
         C7        1.0000    0.64160   0.50000   0.25710   Biso      1.000     C          -0.4373   
         C8        1.0000    0.30840   0.50000   0.06220   Biso      1.000     C          0.422959  
         C9        1.0000    0.35840   0.50000   0.25710   Biso      1.000     C          -0.434746           
         C10       1.0000    0.28460   0.10220   0.86160   Biso      1.000     C          0.539676  
         C11       1.0000    0.71540   0.89780   0.86160   Biso      1.000     C          0.537284  
         C12       1.0000    0.74600   0.95780   0.71020   Biso      1.000     C          0.003187  
         C13       1.0000    0.60220   0.21540   0.36160   Biso      1.000     C          0.540296  
         C14       1.0000    0.54220   0.24600   0.21020   Biso      1.000     C          0.000822  
         C15       1.0000    0.39780   0.78460   0.36160   Biso      1.000     C          0.536735  
         C16       1.0000    0.45780   0.75400   0.21020   Biso      1.000     C          0.00216   
         C17       1.0000    0.19160   0.00000   0.43780   Biso      1.000     C          0.431961  
         C18       1.0000    0.14160   0.00000   0.24290   Biso      1.000     C          -0.4373   
         C19       1.0000    0.00000   0.85840   0.75710   Biso      1.000     C          -0.434746           
         C20       1.0000    0.00000   0.80840   0.56220   Biso      1.000     C          0.42296   
         C21       1.0000    0.00000   0.14160   0.75710   Biso      1.000     C          -0.4373   
         C22       1.0000    0.00000   0.19160   0.56220   Biso      1.000     C          0.431961  
         C23       1.0000    0.75400   0.45780   0.78980   Biso      1.000     C          0.002163  
         C24       1.0000    0.78460   0.39780   0.63840   Biso      1.000     C          0.536731  
         C25       1.0000    0.24600   0.45780   0.78980   Biso      1.000     C          0.003188  
         C26       1.0000    0.24600   0.54220   0.78980   Biso      1.000     C          0.000833  
         C27       1.0000    0.95780   0.74600   0.28980   Biso      1.000     C          0.003199  
         C28       1.0000    0.89780   0.71540   0.13840   Biso      1.000     C          0.537282  
         C29       1.0000    0.04220   0.25400   0.28980   Biso      1.000     C          -0.000157           
         C30       1.0000    0.10220   0.28460   0.13840   Biso      1.000     C          0.539676  
         C31       1.0000    0.85840   0.00000   0.24290   Biso      1.000     C          -0.434747           
         C32       1.0000    0.80840   0.00000   0.43780   Biso      1.000     C          0.42296   
         C33       1.0000    0.21540   0.60220   0.63840   Biso      1.000     C          0.540293  
         C34       1.0000    0.21540   0.39780   0.63840   Biso      1.000     C          0.537283  
         C35       1.0000    0.25400   0.04220   0.71020   Biso      1.000     C          -0.000167           
         C36       1.0000    0.50000   0.69160   0.93780   Biso      1.000     C          0.431959  
         C37       1.0000    0.50000   0.64160   0.74290   Biso      1.000     C          -0.4373   
         C38       1.0000    0.54220   0.75400   0.21020   Biso      1.000     C          -0.000159           
         C39       1.0000    0.50000   0.30840   0.93780   Biso      1.000     C          0.422959  
         C40       1.0000    0.28460   0.89780   0.86160   Biso      1.000     C          0.536731  
         C41       1.0000    0.78460   0.60220   0.63840   Biso      1.000     C          0.539678  
         C42       1.0000    0.25400   0.95780   0.71020   Biso      1.000     C          0.002173  
         C43       1.0000    0.45780   0.24600   0.21020   Biso      1.000     C          0.003197  
         C44       1.0000    0.74600   0.04220   0.71020   Biso      1.000     C          0.000835  
         C45       1.0000    0.75400   0.54220   0.78980   Biso      1.000     C          -0.000159           
         C46       1.0000    0.71540   0.10220   0.86160   Biso      1.000     C          0.540293  
         C47       1.0000    0.39780   0.21540   0.36160   Biso      1.000     C          0.537282  
         C48       1.0000    0.50000   0.35840   0.74290   Biso      1.000     C          -0.434746           
         Cd1       1.0000    0.79462   0.20538   0.50000   Biso      1.000     Cd          0.953202  
         Cd2       1.0000    0.20538   0.79462   0.50000   Biso      1.000     Cd          0.953203  
         Cd3       1.0000    0.70538   0.29462   0.00000   Biso      1.000     Cd          0.953203  
         Cd4       1.0000    0.29462   0.29462   0.00000   Biso      1.000     Cd          0.95551   
         Cd5       1.0000    0.70538   0.70538   0.00000   Biso      1.000     Cd          0.951195  
         Cd6       1.0000    0.29462   0.70538   0.00000   Biso      1.000     Cd          0.953203  
         Cd7       1.0000    0.79462   0.79462   0.50000   Biso      1.000     Cd          0.95551   
         Cd8       1.0000    0.20538   0.20538   0.50000   Biso      1.000     Cd          0.951194  
         H1        1.0000    0.47754   0.68108   0.60980   Biso      1.000     H          0.13968   
         H2        1.0000    0.45761   0.32860   0.62542   Biso      1.000     H          0.139978  
         H3        1.0000    0.45761   0.58661   0.76217   Biso      1.000     H          0.130838  
         H4        1.0000    0.97754   0.92307   0.72222   Biso      1.000     H          0.12894   
         H5        1.0000    0.11932   0.06485   0.20941   Biso      1.000     H          0.136079  
         H6        1.0000    0.18108   0.97754   0.10980   Biso      1.000     H          0.13968   
         H7        1.0000    0.08661   0.95761   0.26217   Biso      1.000     H          0.130838  
         H8        1.0000    0.47754   0.42307   0.77778   Biso      1.000     H          0.12894   
         H9        1.0000    0.86132   0.06485   0.17818   Biso      1.000     H          0.137889  
         H10       1.0000    0.56485   0.36132   0.67818   Biso      1.000     H          0.137889  
         H11       1.0000    0.92307   0.97754   0.27778   Biso      1.000     H          0.12894   
         H12       1.0000    0.82860   0.95761   0.12542   Biso      1.000     H          0.139978  
         H13       1.0000    0.95761   0.82860   0.87458   Biso      1.000     H          0.139978  
         H14       1.0000    0.06485   0.11932   0.79059   Biso      1.000     H          0.136079  
         H15       1.0000    0.97754   0.18108   0.89020   Biso      1.000     H          0.13968   
         H16       1.0000    0.06485   0.86132   0.82182   Biso      1.000     H          0.137889  
         H17       1.0000    0.95761   0.08661   0.73783   Biso      1.000     H          0.130838  
         H18       1.0000    0.32860   0.45761   0.37458   Biso      1.000     H          0.139978  
         H19       1.0000    0.42307   0.47754   0.22222   Biso      1.000     H          0.12894   
         H20       1.0000    0.36132   0.56485   0.32182   Biso      1.000     H          0.137889  
         H21       1.0000    0.58661   0.45761   0.23783   Biso      1.000     H          0.130838  
         H22       1.0000    0.68108   0.47754   0.39020   Biso      1.000     H          0.13968   
         H23       1.0000    0.61932   0.56485   0.29059   Biso      1.000     H          0.136079  
         H24       1.0000    0.56485   0.61932   0.70941   Biso      1.000     H          0.136079  
         N1        1.0000    0.28590   0.43140   0.96250   Biso      1.000     N          -0.388033           
         N2        1.0000    0.06860   0.78590   0.46250   Biso      1.000     N          -0.392418           
         N3        1.0000    0.78590   0.06860   0.53750   Biso      1.000     N          -0.392418           
         N4        1.0000    0.56860   0.28590   0.03750   Biso      1.000     N          -0.392417           
         N5        1.0000    0.71410   0.56860   0.96250   Biso      1.000     N          -0.391994           
         N6        1.0000    0.43140   0.71410   0.03750   Biso      1.000     N          -0.387445           
         N7        1.0000    0.21410   0.93140   0.53750   Biso      1.000     N          -0.387448           
         N8        1.0000    0.28590   0.56860   0.96250   Biso      1.000     N          -0.392419           
         N9        1.0000    0.06860   0.21410   0.46250   Biso      1.000     N          -0.391994           
         N10       1.0000    0.93140   0.78590   0.46250   Biso      1.000     N          -0.388034           
         N11       1.0000    0.56860   0.71410   0.03750   Biso      1.000     N          -0.391994           
         N12       1.0000    0.78590   0.93140   0.53750   Biso      1.000     N          -0.388034           
         N13       1.0000    0.43140   0.28590   0.03750   Biso      1.000     N          -0.388034           
         N14       1.0000    0.93140   0.21410   0.46250   Biso      1.000     N          -0.387446           
         N15       1.0000    0.21410   0.06860   0.53750   Biso      1.000     N          -0.391994           
         N16       1.0000    0.71410   0.43140   0.96250   Biso      1.000     N          -0.387446           
         O1        1.0000    0.23285   0.67686   0.67320   Biso      1.000     O          -0.524864           
         O2        1.0000    0.82530   0.42070   0.48290   Biso      1.000     O          -0.303979           
         O3        1.0000    0.76715   0.32314   0.67320   Biso      1.000     O          -0.52632  
         O4        1.0000    0.57930   0.82530   0.51710   Biso      1.000     O          -0.297433           
         O5        1.0000    0.67686   0.76715   0.32680   Biso      1.000     O          -0.525568           
         O6        1.0000    0.17470   0.57930   0.48290   Biso      1.000     O          -0.296241           
         O7        1.0000    0.32314   0.23285   0.32680   Biso      1.000     O          -0.525692           
         O8        1.0000    0.82530   0.57930   0.48290   Biso      1.000     O          -0.297444           
         O9        1.0000    0.82314   0.73285   0.17320   Biso      1.000     O          -0.525694           
         O10       1.0000    0.23285   0.32314   0.67320   Biso      1.000     O          -0.525694           
         O11       1.0000    0.17470   0.42070   0.48290   Biso      1.000     O          -0.302842           
         O12       1.0000    0.17686   0.73285   0.17320   Biso      1.000     O          -0.524865           
         O13       1.0000    0.07930   0.67470   0.98290   Biso      1.000     O          -0.296243           
         O14       1.0000    0.82314   0.26715   0.17320   Biso      1.000     O          -0.526321           
         O15       1.0000    0.92070   0.32530   0.98290   Biso      1.000     O          -0.303983           
         O16       1.0000    0.26715   0.17686   0.82680   Biso      1.000     O          -0.52557  
         O17       1.0000    0.32530   0.07930   0.01710   Biso      1.000     O          -0.297433           
         O18       1.0000    0.73285   0.82314   0.82680   Biso      1.000     O          -0.525693           
         O19       1.0000    0.67470   0.92070   0.01710   Biso      1.000     O          -0.302839           
         O20       1.0000    0.32530   0.92070   0.01710   Biso      1.000     O          -0.30398  
         O21       1.0000    0.67686   0.23285   0.32680   Biso      1.000     O          -0.524864           
         O22       1.0000    0.57930   0.17470   0.51710   Biso      1.000     O          -0.296247           
         O23       1.0000    0.26715   0.82314   0.82680   Biso      1.000     O          -0.526321           
         O24       1.0000    0.32314   0.76715   0.32680   Biso      1.000     O          -0.526321           
         O25       1.0000    0.76715   0.67686   0.67320   Biso      1.000     O          -0.525569           
         O26       1.0000    0.67470   0.07930   0.01710   Biso      1.000     O          -0.296246           
         O27       1.0000    0.73285   0.17686   0.82680   Biso      1.000     O          -0.524864           
         O28       1.0000    0.17686   0.26715   0.17320   Biso      1.000     O          -0.525568           
         O29       1.0000    0.07930   0.32530   0.98290   Biso      1.000     O          -0.297438           
         O30       1.0000    0.42070   0.17470   0.51710   Biso      1.000     O          -0.30284  
         O31       1.0000    0.92070   0.67470   0.98290   Biso      1.000     O          -0.302841           
         O32       1.0000    0.42070   0.82530   0.51710   Biso      1.000     O          -0.303989 