
##########################################################################
#               Crystallographic Information Format file
#               Produced by PyCifRW module
#
#  This is a CIF file.  CIF has been adopted by the International
#  Union of Crystallography as the standard for data archiving and
#  transmission.
#
#  For information on this file format, follow the CIF links at
#  http://www.iucr.org
##########################################################################

data_image0

_cell_length_a                          14.8731
_cell_length_b                          6.8365
_cell_length_c                          15.2449
_cell_angle_alpha                       90
_cell_angle_beta                        90
_cell_angle_gamma                       90
_symmetry_space_group_name_H-M          'P 1'
_symmetry_int_tables_number             1
loop_
  _symmetry_equiv_pos_as_xyz
         'x, y, z' 
loop_
  _atom_site_label
  _atom_site_occupancy
  _atom_site_fract_x
  _atom_site_fract_y
  _atom_site_fract_z
  _atom_site_thermal_displace_type
  _atom_site_B_iso_or_equiv
  _atom_site_type_symbol
  _atom_site_charge
         C1        1.0000    0.28100   0.57650   0.78320   Biso      1.000     C          -0.100492           
         C2        1.0000    0.71900   0.42350   0.21680   Biso      1.000     C          -0.100499           
         C3        1.0000    0.21900   0.07650   0.28320   Biso      1.000     C          -0.100511           
         C4        1.0000    0.78100   0.57650   0.71680   Biso      1.000     C          -0.10052  
         C5        1.0000    0.28100   0.92350   0.78320   Biso      1.000     C          -0.100493           
         C6        1.0000    0.28100   0.07650   0.21680   Biso      1.000     C          -0.100485           
         C7        1.0000    0.78100   0.42350   0.28320   Biso      1.000     C          -0.100501           
         C8        1.0000    0.71900   0.92350   0.78320   Biso      1.000     C          -0.100507           
         C9        1.0000    0.21900   0.42350   0.28320   Biso      1.000     C          -0.100512           
         C10       1.0000    0.18790   0.75000   0.68360   Biso      1.000     C          -0.02563  
         C11       1.0000    0.12130   0.75000   0.61230   Biso      1.000     C          0.653196  
         C12       1.0000    0.68790   0.25000   0.18360   Biso      1.000     C          -0.025366           
         C13       1.0000    0.71900   0.57650   0.78320   Biso      1.000     C          -0.100494           
         C14       1.0000    0.62130   0.25000   0.11230   Biso      1.000     C          0.65294   
         C15       1.0000    0.81210   0.75000   0.68360   Biso      1.000     C          -0.025633999999999997         
         C16       1.0000    0.87870   0.75000   0.61230   Biso      1.000     C          0.653195  
         C17       1.0000    0.21900   0.92350   0.71680   Biso      1.000     C          -0.100493           
         C18       1.0000    0.31210   0.25000   0.18360   Biso      1.000     C          -0.025366999999999997         
         C19       1.0000    0.37870   0.25000   0.11230   Biso      1.000     C          0.652941  
         C20       1.0000    0.81210   0.25000   0.31640   Biso      1.000     C          -0.02563  
         C21       1.0000    0.28100   0.42350   0.21680   Biso      1.000     C          -0.100483           
         C22       1.0000    0.87870   0.25000   0.38770   Biso      1.000     C          0.653195  
         C23       1.0000    0.31210   0.75000   0.81640   Biso      1.000     C          -0.02536  
         C24       1.0000    0.78100   0.92350   0.71680   Biso      1.000     C          -0.100505           
         C25       1.0000    0.21900   0.57650   0.71680   Biso      1.000     C          -0.100494           
         C26       1.0000    0.62130   0.75000   0.88770   Biso      1.000     C          0.652939  
         C27       1.0000    0.37870   0.75000   0.88770   Biso      1.000     C          0.652941  
         C28       1.0000    0.68790   0.75000   0.81640   Biso      1.000     C          -0.025366           
         C29       1.0000    0.78100   0.07650   0.28320   Biso      1.000     C          -0.100511           
         C30       1.0000    0.18790   0.25000   0.31640   Biso      1.000     C          -0.025626999999999997         
         C31       1.0000    0.71900   0.07650   0.21680   Biso      1.000     C          -0.100486           
         C32       1.0000    0.12130   0.25000   0.38770   Biso      1.000     C          0.653195  
         Cr1       1.0000    0.00000   0.50000   0.50000   Biso      1.000     Cr          1.6404619999999999  
         Cr2       1.0000    0.50000   0.00000   0.00000   Biso      1.000     Cr          1.6401560000000002  
         Cr3       1.0000    0.00000   0.00000   0.50000   Biso      1.000     Cr          1.6404759999999998  
         Cr4       1.0000    0.50000   0.50000   0.00000   Biso      1.000     Cr          1.640149  
         H1        1.0000    0.80320   0.45230   0.69300   Biso      1.000     H          0.12098699999999998           
         H2        1.0000    0.69680   0.54770   0.19300   Biso      1.000     H          0.12104200000000001           
         H3        1.0000    0.30320   0.95230   0.19300   Biso      1.000     H          0.12104100000000001           
         H4        1.0000    0.19680   0.45230   0.69300   Biso      1.000     H          0.120992  
         H5        1.0000    0.69680   0.45230   0.80700   Biso      1.000     H          0.121038  
         H6        1.0000    0.80320   0.95230   0.30700   Biso      1.000     H          0.12099000000000001           
         H7        1.0000    0.50000   0.25000   0.88290   Biso      1.000     H          0.414922  
         H8        1.0000    0.30320   0.45230   0.80700   Biso      1.000     H          0.121044  
         H9        1.0000    0.19680   0.04770   0.69300   Biso      1.000     H          0.120992  
         H10       1.0000    0.50000   0.75000   0.11710   Biso      1.000     H          0.414922  
         H11       1.0000    0.19680   0.95230   0.30700   Biso      1.000     H          0.12099000000000001           
         H12       1.0000    0.69680   0.95230   0.19300   Biso      1.000     H          0.12104200000000001           
         H13       1.0000    0.00000   0.75000   0.38290   Biso      1.000     H          0.415228  
         H14       1.0000    0.30320   0.04770   0.80700   Biso      1.000     H          0.121045  
         H15       1.0000    0.80320   0.04770   0.69300   Biso      1.000     H          0.120986  
         H16       1.0000    0.00000   0.25000   0.61710   Biso      1.000     H          0.415228  
         H17       1.0000    0.80320   0.54770   0.30700   Biso      1.000     H          0.12099000000000001           
         H18       1.0000    0.30320   0.54770   0.19300   Biso      1.000     H          0.12104100000000001           
         H19       1.0000    0.69680   0.04770   0.80700   Biso      1.000     H          0.12104000000000001           
         H20       1.0000    0.19680   0.54770   0.30700   Biso      1.000     H          0.12099000000000001           
         O1        1.0000    0.59300   0.59180   0.91790   Biso      1.000     O          -0.602943           
         O2        1.0000    0.59300   0.09180   0.08210   Biso      1.000     O          -0.602942           
         O3        1.0000    0.09300   0.59180   0.58210   Biso      1.000     O          -0.602956           
         O4        1.0000    0.00000   0.75000   0.44850   Biso      1.000     O          -0.980554           
         O5        1.0000    0.50000   0.25000   0.94850   Biso      1.000     O          -0.9810399999999999           
         O6        1.0000    0.40700   0.40820   0.08210   Biso      1.000     O          -0.6029439999999999           
         O7        1.0000    0.90700   0.90820   0.58210   Biso      1.000     O          -0.602955           
         O8        1.0000    0.40700   0.59180   0.91790   Biso      1.000     O          -0.602942           
         O9        1.0000    0.09300   0.40820   0.41790   Biso      1.000     O          -0.602957           
         O10       1.0000    0.59300   0.90820   0.91790   Biso      1.000     O          -0.602942           
         O11       1.0000    0.40700   0.09180   0.08210   Biso      1.000     O          -0.6029439999999999           
         O12       1.0000    0.90700   0.40820   0.41790   Biso      1.000     O          -0.602955           
         O13       1.0000    0.90700   0.59180   0.58210   Biso      1.000     O          -0.602957           
         O14       1.0000    0.40700   0.90820   0.91790   Biso      1.000     O          -0.602941           
         O15       1.0000    0.59300   0.40820   0.08210   Biso      1.000     O          -0.602941           
         O16       1.0000    0.09300   0.09180   0.41790   Biso      1.000     O          -0.602955           
         O17       1.0000    0.00000   0.25000   0.55150   Biso      1.000     O          -0.980554           
         O18       1.0000    0.09300   0.90820   0.58210   Biso      1.000     O          -0.602955           
         O19       1.0000    0.90700   0.09180   0.41790   Biso      1.000     O          -0.602953           
         O20       1.0000    0.50000   0.75000   0.05150   Biso      1.000     O          -0.9810399999999999 