
##########################################################################
#               Crystallographic Information Format file
#               Produced by PyCifRW module
#
#  This is a CIF file.  CIF has been adopted by the International
#  Union of Crystallography as the standard for data archiving and
#  transmission.
#
#  For information on this file format, follow the CIF links at
#  http://www.iucr.org
##########################################################################

data_image0

_cell_length_a                          19.2395
_cell_length_b                          15.1642
_cell_length_c                          6.6812
_cell_angle_alpha                       90
_cell_angle_beta                        84.0842
_cell_angle_gamma                       90
_symmetry_space_group_name_H-M          'P 1'
_symmetry_int_tables_number             1
loop_
  _symmetry_equiv_pos_as_xyz
         'x, y, z' 
loop_
  _atom_site_label
  _atom_site_occupancy
  _atom_site_fract_x
  _atom_site_fract_y
  _atom_site_fract_z
  _atom_site_thermal_displace_type
  _atom_site_B_iso_or_equiv
  _atom_site_type_symbol
  _atom_site_charge
         C1        1.0000    0.81687   0.39986   0.77902   Biso      1.000     C          -0.025028           
         C2        1.0000    0.29826   0.87798   0.56465   Biso      1.000     C          -0.097162           
         C3        1.0000    0.32131   0.86369   0.74922   Biso      1.000     C          -0.017978           
         C4        1.0000    0.89423   0.91783   0.78557   Biso      1.000     C          0.609693  
         C5        1.0000    0.60896   0.83715   0.70701   Biso      1.000     C          0.627711  
         C6        1.0000    0.70192   0.88981   0.90603   Biso      1.000     C          -0.089062           
         C7        1.0000    0.77049   0.90920   0.92491   Biso      1.000     C          -0.101077           
         C8        1.0000    0.82016   0.89688   0.76517   Biso      1.000     C          -0.019825           
         C9        1.0000    0.80127   0.86518   0.58655   Biso      1.000     C          -0.091534           
         C10       1.0000    0.73270   0.84579   0.56767   Biso      1.000     C          -0.098964           
         C11       1.0000    0.68303   0.85810   0.72741   Biso      1.000     C          -0.023613           
         C12       1.0000    0.39595   0.84416   0.76447   Biso      1.000     C          0.621027  
         C13       1.0000    0.10849   0.91940   0.70573   Biso      1.000     C          0.625349  
         C14       1.0000    0.18313   0.60014   0.22098   Biso      1.000     C          -0.025028           
         C15       1.0000    0.77083   0.39606   0.94947   Biso      1.000     C          -0.098851           
         C16       1.0000    0.22917   0.60394   0.05053   Biso      1.000     C          -0.098852           
         C17       1.0000    0.32131   0.63631   0.24922   Biso      1.000     C          -0.017983           
         C18       1.0000    0.27527   0.63251   0.41967   Biso      1.000     C          -0.103238           
         C19       1.0000    0.20618   0.61442   0.40555   Biso      1.000     C          -0.094456           
         C20       1.0000    0.10849   0.58060   0.20573   Biso      1.000     C          0.625348  
         C21       1.0000    0.39595   0.65584   0.26447   Biso      1.000     C          0.621028  
         C22       1.0000    0.68303   0.64190   0.22741   Biso      1.000     C          -0.023626           
         C23       1.0000    0.73270   0.65421   0.06767   Biso      1.000     C          -0.098961           
         C24       1.0000    0.80127   0.63482   0.08655   Biso      1.000     C          -0.091535           
         C25       1.0000    0.82016   0.60312   0.26517   Biso      1.000     C          -0.01982  
         C26       1.0000    0.77049   0.59080   0.42491   Biso      1.000     C          -0.101085           
         C27       1.0000    0.70192   0.61019   0.40603   Biso      1.000     C          -0.089048           
         C28       1.0000    0.60896   0.66285   0.20701   Biso      1.000     C          0.627712  
         C29       1.0000    0.89423   0.58217   0.28557   Biso      1.000     C          0.609692  
         C30       1.0000    0.29826   0.62202   0.06465   Biso      1.000     C          -0.097149           
         C31       1.0000    0.70174   0.37798   0.93535   Biso      1.000     C          -0.097154           
         C32       1.0000    0.67869   0.36369   0.75078   Biso      1.000     C          -0.017979           
         C33       1.0000    0.72473   0.36749   0.58033   Biso      1.000     C          -0.103239           
         C34       1.0000    0.18313   0.89986   0.72098   Biso      1.000     C          -0.025028           
         C35       1.0000    0.22917   0.89606   0.55053   Biso      1.000     C          -0.098843           
         C36       1.0000    0.10577   0.41783   0.71443   Biso      1.000     C          0.609693  
         C37       1.0000    0.39104   0.33715   0.79299   Biso      1.000     C          0.627711  
         C38       1.0000    0.29808   0.38981   0.59397   Biso      1.000     C          -0.089062           
         C39       1.0000    0.22951   0.40920   0.57509   Biso      1.000     C          -0.101077           
         C40       1.0000    0.17984   0.39688   0.73483   Biso      1.000     C          -0.019825           
         C41       1.0000    0.19873   0.36518   0.91345   Biso      1.000     C          -0.091534           
         C42       1.0000    0.81687   0.10014   0.27902   Biso      1.000     C          -0.025028           
         C43       1.0000    0.77083   0.10394   0.44947   Biso      1.000     C          -0.098851           
         C44       1.0000    0.70174   0.12202   0.43535   Biso      1.000     C          -0.097154           
         C45       1.0000    0.67869   0.13631   0.25078   Biso      1.000     C          -0.017978           
         C46       1.0000    0.72473   0.13251   0.08033   Biso      1.000     C          -0.103239           
         C47       1.0000    0.79382   0.11442   0.09445   Biso      1.000     C          -0.094456           
         C48       1.0000    0.89151   0.08060   0.29427   Biso      1.000     C          0.625348  
         C49       1.0000    0.60405   0.15584   0.23553   Biso      1.000     C          0.621027  
         C50       1.0000    0.31697   0.14190   0.27259   Biso      1.000     C          -0.023626           
         C51       1.0000    0.26730   0.15421   0.43233   Biso      1.000     C          -0.098962           
         C52       1.0000    0.19873   0.13482   0.41345   Biso      1.000     C          -0.091535           
         C53       1.0000    0.17984   0.10312   0.23483   Biso      1.000     C          -0.01982  
         C54       1.0000    0.22951   0.09080   0.07509   Biso      1.000     C          -0.101085           
         C55       1.0000    0.29808   0.11019   0.09397   Biso      1.000     C          -0.089048           
         C56       1.0000    0.39104   0.16285   0.29299   Biso      1.000     C          0.627712  
         C57       1.0000    0.10577   0.08217   0.21443   Biso      1.000     C          0.609692  
         C58       1.0000    0.26730   0.34579   0.93233   Biso      1.000     C          -0.098965           
         C59       1.0000    0.31697   0.35810   0.77259   Biso      1.000     C          -0.023613           
         C60       1.0000    0.60405   0.34416   0.73553   Biso      1.000     C          0.621027  
         C61       1.0000    0.89151   0.41940   0.79427   Biso      1.000     C          0.625349  
         C62       1.0000    0.79382   0.38558   0.59445   Biso      1.000     C          -0.094456           
         C63       1.0000    0.20618   0.88558   0.90555   Biso      1.000     C          -0.094462           
         C64       1.0000    0.27527   0.86749   0.91967   Biso      1.000     C          -0.103233           
         Ga1       1.0000    0.49568   0.25396   0.51928   Biso      1.000     Ga          1.483873  
         Ga2       1.0000    0.00000   0.00000   0.50000   Biso      1.000     Ga          1.478804  
         Ga3       1.0000    0.00000   0.00000   0.00000   Biso      1.000     Ga          1.512401  
         Ga4       1.0000    0.00000   0.50000   0.50000   Biso      1.000     Ga          1.5124    
         Ga5       1.0000    0.49568   0.24604   0.01928   Biso      1.000     Ga          1.483876  
         Ga6       1.0000    0.50432   0.74604   0.48072   Biso      1.000     Ga          1.483874  
         Ga7       1.0000    0.00000   0.50000   0.00000   Biso      1.000     Ga          1.478803  
         Ga8       1.0000    0.50432   0.75396   0.98072   Biso      1.000     Ga          1.483875  
         H1        1.0000    0.99990   0.37046   0.24650   Biso      1.000     H          0.423918  
         H2        1.0000    0.49900   0.12306   0.77180   Biso      1.000     H          0.437785  
         H3        1.0000    0.00010   0.62954   0.75350   Biso      1.000     H          0.423918  
         H4        1.0000    0.50100   0.87694   0.22820   Biso      1.000     H          0.437785  
         H5        1.0000    0.78732   0.40628   0.08149   Biso      1.000     H          0.116614  
         H6        1.0000    0.66881   0.37526   0.05727   Biso      1.000     H          0.123497  
         H7        1.0000    0.70824   0.35727   0.44831   Biso      1.000     H          0.120257  
         H8        1.0000    0.82676   0.38829   0.47252   Biso      1.000     H          0.12438   
         H9        1.0000    0.28082   0.32311   0.06010   Biso      1.000     H          0.114561  
         H10       1.0000    0.16320   0.35637   0.02772   Biso      1.000     H          0.12138   
         H11       1.0000    0.21599   0.43188   0.44732   Biso      1.000     H          0.114386  
         H12       1.0000    0.33361   0.39861   0.47970   Biso      1.000     H          0.121344  
         H13       1.0000    0.21599   0.06812   0.94732   Biso      1.000     H          0.114387  
         H14       1.0000    0.16320   0.14363   0.52772   Biso      1.000     H          0.12138   
         H15       1.0000    0.28082   0.17689   0.56010   Biso      1.000     H          0.114561  
         H16       1.0000    0.82676   0.11171   0.97252   Biso      1.000     H          0.12438   
         H17       1.0000    0.70824   0.14273   0.94831   Biso      1.000     H          0.120257  
         H18       1.0000    0.99990   0.12954   0.74650   Biso      1.000     H          0.423918  
         H19       1.0000    0.49900   0.37694   0.27180   Biso      1.000     H          0.437785  
         H20       1.0000    0.66881   0.12474   0.55727   Biso      1.000     H          0.123497  
         H21       1.0000    0.78732   0.09372   0.58149   Biso      1.000     H          0.116614  
         H22       1.0000    0.33361   0.10139   0.97970   Biso      1.000     H          0.121343  
         H23       1.0000    0.21268   0.59372   0.91851   Biso      1.000     H          0.116614  
         H24       1.0000    0.21268   0.90628   0.41851   Biso      1.000     H          0.116614  
         H25       1.0000    0.29176   0.64273   0.55169   Biso      1.000     H          0.120257  
         H26       1.0000    0.33119   0.87526   0.44273   Biso      1.000     H          0.123498  
         H27       1.0000    0.78401   0.56812   0.55268   Biso      1.000     H          0.114387  
         H28       1.0000    0.83680   0.64363   0.97228   Biso      1.000     H          0.12138   
         H29       1.0000    0.29176   0.85727   0.05169   Biso      1.000     H          0.120257  
         H30       1.0000    0.17324   0.88829   0.02748   Biso      1.000     H          0.124381  
         H31       1.0000    0.66639   0.89861   0.02030   Biso      1.000     H          0.121344  
         H32       1.0000    0.71918   0.82311   0.43990   Biso      1.000     H          0.114561  
         H33       1.0000    0.83680   0.85637   0.47228   Biso      1.000     H          0.12138   
         H34       1.0000    0.78401   0.93188   0.05268   Biso      1.000     H          0.114386  
         H35       1.0000    0.33119   0.62474   0.94273   Biso      1.000     H          0.123497  
         H36       1.0000    0.50100   0.62306   0.72820   Biso      1.000     H          0.437785  
         H37       1.0000    0.00010   0.87046   0.25350   Biso      1.000     H          0.423918  
         H38       1.0000    0.71918   0.67689   0.93990   Biso      1.000     H          0.114561  
         H39       1.0000    0.17324   0.61171   0.52748   Biso      1.000     H          0.12438   
         H40       1.0000    0.66639   0.60139   0.52030   Biso      1.000     H          0.121343  
         O1        1.0000    0.49900   0.18900   0.77180   Biso      1.000     O          -0.879306           
         O2        1.0000    0.49900   0.31100   0.27180   Biso      1.000     O          -0.879306           
         O3        1.0000    0.93439   0.42158   0.63655   Biso      1.000     O          -0.592167           
         O4        1.0000    0.91268   0.43397   0.96508   Biso      1.000     O          -0.563603           
         O5        1.0000    0.99990   0.06360   0.74650   Biso      1.000     O          -0.88906  
         O6        1.0000    0.56103   0.34297   0.89300   Biso      1.000     O          -0.606569           
         O7        1.0000    0.58303   0.32858   0.56497   Biso      1.000     O          -0.571512           
         O8        1.0000    0.40855   0.30769   0.95851   Biso      1.000     O          -0.571053           
         O9        1.0000    0.43710   0.34865   0.64496   Biso      1.000     O          -0.591126           
         O10       1.0000    0.05926   0.40253   0.85933   Biso      1.000     O          -0.602766           
         O11       1.0000    0.08871   0.45110   0.55204   Biso      1.000     O          -0.553437           
         O12       1.0000    0.59145   0.69231   0.04149   Biso      1.000     O          -0.571054           
         O13       1.0000    0.56290   0.65135   0.35504   Biso      1.000     O          -0.591127           
         O14       1.0000    0.99990   0.43640   0.24650   Biso      1.000     O          -0.889059           
         O15       1.0000    0.91268   0.06603   0.46508   Biso      1.000     O          -0.563603           
         O16       1.0000    0.40855   0.19231   0.45851   Biso      1.000     O          -0.571053           
         O17       1.0000    0.56103   0.15703   0.39300   Biso      1.000     O          -0.606569           
         O18       1.0000    0.50100   0.81100   0.22820   Biso      1.000     O          -0.879306           
         O19       1.0000    0.00010   0.93640   0.25350   Biso      1.000     O          -0.88906  
         O20       1.0000    0.08732   0.93397   0.53492   Biso      1.000     O          -0.563604           
         O21       1.0000    0.06561   0.92158   0.86345   Biso      1.000     O          -0.592167           
         O22       1.0000    0.43897   0.84297   0.60700   Biso      1.000     O          -0.606569           
         O23       1.0000    0.41697   0.82858   0.93503   Biso      1.000     O          -0.571512           
         O24       1.0000    0.59145   0.80769   0.54149   Biso      1.000     O          -0.571053           
         O25       1.0000    0.56290   0.84865   0.85504   Biso      1.000     O          -0.591127           
         O26       1.0000    0.94074   0.90253   0.64067   Biso      1.000     O          -0.602766           
         O27       1.0000    0.91129   0.95110   0.94796   Biso      1.000     O          -0.553437           
         O28       1.0000    0.94074   0.59747   0.14067   Biso      1.000     O          -0.602766           
         O29       1.0000    0.50100   0.68900   0.72820   Biso      1.000     O          -0.879306           
         O30       1.0000    0.00010   0.56360   0.75350   Biso      1.000     O          -0.889059           
         O31       1.0000    0.08732   0.56603   0.03492   Biso      1.000     O          -0.563603           
         O32       1.0000    0.06561   0.57842   0.36345   Biso      1.000     O          -0.592166           
         O33       1.0000    0.43897   0.65703   0.10700   Biso      1.000     O          -0.606569           
         O34       1.0000    0.41697   0.67142   0.43503   Biso      1.000     O          -0.571511           
         O35       1.0000    0.08871   0.04890   0.05204   Biso      1.000     O          -0.553437           
         O36       1.0000    0.05926   0.09747   0.35933   Biso      1.000     O          -0.602766           
         O37       1.0000    0.43710   0.15135   0.14496   Biso      1.000     O          -0.591127           
         O38       1.0000    0.58303   0.17142   0.06497   Biso      1.000     O          -0.571512           
         O39       1.0000    0.93439   0.07842   0.13655   Biso      1.000     O          -0.592167           
         O40       1.0000    0.91129   0.54890   0.44796   Biso      1.000     O          -0.553437 