
##########################################################################
#               Crystallographic Information Format file
#               Produced by PyCifRW module
#
#  This is a CIF file.  CIF has been adopted by the International
#  Union of Crystallography as the standard for data archiving and
#  transmission.
#
#  For information on this file format, follow the CIF links at
#  http://www.iucr.org
##########################################################################

data_image0

_cell_length_a                          12.6331
_cell_length_b                          7.3937
_cell_length_c                          10.9623
_cell_angle_alpha                       90
_cell_angle_beta                        109.51
_cell_angle_gamma                       90
_symmetry_space_group_name_H-M          'P 1'
_symmetry_int_tables_number             1
loop_
  _symmetry_equiv_pos_as_xyz
         'x, y, z' 
loop_
  _atom_site_label
  _atom_site_occupancy
  _atom_site_fract_x
  _atom_site_fract_y
  _atom_site_fract_z
  _atom_site_thermal_displace_type
  _atom_site_B_iso_or_equiv
  _atom_site_type_symbol
  _atom_site_charge
         C1        1.0000    0.63910   0.00000   0.78450   Biso      1.000     C          -0.198613           
         C2        1.0000    0.72590   0.00000   0.62420   Biso      1.000     C          -0.19556300000000001          
         C3        1.0000    0.51080   0.00000   0.56200   Biso      1.000     C          -0.118671           
         C4        1.0000    0.62690   0.00000   0.65460   Biso      1.000     C          0.157857  
         C5        1.0000    0.74450   0.00000   0.87580   Biso      1.000     C          0.104332  
         C6        1.0000    0.25550   0.00000   0.12420   Biso      1.000     C          0.104326  
         C7        1.0000    0.36090   0.00000   0.21550   Biso      1.000     C          -0.19860799999999998          
         C8        1.0000    0.37310   0.00000   0.34540   Biso      1.000     C          0.157852  
         C9        1.0000    0.48920   0.00000   0.43800   Biso      1.000     C          -0.118623           
         C10       1.0000    0.01190   0.66080   0.56640   Biso      1.000     C          -0.174137           
         C11       1.0000    0.83120   0.00000   0.72250   Biso      1.000     C          0.092954  
         C12       1.0000    0.27410   0.00000   0.37580   Biso      1.000     C          -0.19556199999999999          
         C13       1.0000    0.05430   0.65950   0.84531   Biso      1.000     C          0.30645700000000003           
         C14       1.0000    0.98810   0.66080   0.43360   Biso      1.000     C          -0.17413299999999998          
         C15       1.0000    0.94570   0.65950   0.15469   Biso      1.000     C          0.306456  
         C16       1.0000    0.04740   0.50000   0.77720   Biso      1.000     C          -0.24751700000000001          
         C17       1.0000    0.02470   0.50000   0.63560   Biso      1.000     C          0.107206  
         C18       1.0000    0.98810   0.33920   0.43360   Biso      1.000     C          -0.17413800000000001          
         C19       1.0000    0.94570   0.34050   0.15469   Biso      1.000     C          0.306456  
         C20       1.0000    0.95260   0.50000   0.22280   Biso      1.000     C          -0.247515           
         C21       1.0000    0.97530   0.50000   0.36440   Biso      1.000     C          0.107207  
         C22       1.0000    0.01190   0.33920   0.56640   Biso      1.000     C          -0.17413  
         C23       1.0000    0.05430   0.34050   0.84531   Biso      1.000     C          0.306458  
         C24       1.0000    0.16880   0.00000   0.27750   Biso      1.000     C          0.092954  
         H1        1.0000    0.10380   0.00000   0.29940   Biso      1.000     H          0.09977799999999999           
         H2        1.0000    0.27800   0.00000   0.46200   Biso      1.000     H          0.126046  
         H3        1.0000    0.42410   0.00000   0.18990   Biso      1.000     H          0.129424  
         H4        1.0000    0.25000   0.00000   0.03740   Biso      1.000     H          0.09315   
         H5        1.0000    0.01950   0.22970   0.61020   Biso      1.000     H          0.110622  
         H6        1.0000    0.43661   0.00000   0.59917   Biso      1.000     H          0.10664100000000001           
         H7        1.0000    0.89620   0.00000   0.70060   Biso      1.000     H          0.09977799999999999           
         H8        1.0000    0.72200   0.00000   0.53800   Biso      1.000     H          0.126046  
         H9        1.0000    0.57590   0.00000   0.81010   Biso      1.000     H          0.129424  
         H10       1.0000    0.75000   0.00000   0.96260   Biso      1.000     H          0.09315   
         H11       1.0000    0.01950   0.77030   0.61020   Biso      1.000     H          0.110622  
         H12       1.0000    0.98050   0.77030   0.38980   Biso      1.000     H          0.110622  
         H13       1.0000    0.98050   0.22970   0.38980   Biso      1.000     H          0.110622  
         H14       1.0000    0.56339   0.00000   0.40083   Biso      1.000     H          0.106637  
         N1        1.0000    0.06020   0.79420   0.90083   Biso      1.000     N          -0.461941           
         N2        1.0000    0.93980   0.79420   0.09917   Biso      1.000     N          -0.461941           
         N3        1.0000    0.16070   0.00000   0.15200   Biso      1.000     N          -0.201004           
         N4        1.0000    0.93980   0.20580   0.09917   Biso      1.000     N          -0.461941           
         N5        1.0000    0.06020   0.20580   0.90083   Biso      1.000     N          -0.461941           
         N6        1.0000    0.83930   0.00000   0.84800   Biso      1.000     N          -0.201005           
         Zn1       1.0000    0.00000   0.00000   0.00000   Biso      1.000     Zn          0.7639020000000001 