
##########################################################################
#               Crystallographic Information Format file
#               Produced by PyCifRW module
#
#  This is a CIF file.  CIF has been adopted by the International
#  Union of Crystallography as the standard for data archiving and
#  transmission.
#
#  For information on this file format, follow the CIF links at
#  http://www.iucr.org
##########################################################################

data_image0

_cell_length_a                          7.3077
_cell_length_b                          23.3444
_cell_length_c                          18.8151
_cell_angle_alpha                       90
_cell_angle_beta                        90
_cell_angle_gamma                       90
_symmetry_space_group_name_H-M          'P 1'
_symmetry_int_tables_number             1
loop_
  _symmetry_equiv_pos_as_xyz
         'x, y, z' 
loop_
  _atom_site_label
  _atom_site_occupancy
  _atom_site_fract_x
  _atom_site_fract_y
  _atom_site_fract_z
  _atom_site_thermal_displace_type
  _atom_site_B_iso_or_equiv
  _atom_site_type_symbol
  _atom_site_charge
         C1        1.0000    0.12680   0.05034   0.32588   Biso      1.000     C          -0.031286           
         C2        1.0000    0.03860   0.11308   0.22900   Biso      1.000     C          0.200601  
         C3        1.0000    0.97120   0.17067   0.20315   Biso      1.000     C          -0.525945           
         C4        1.0000    0.48400   0.14344   0.51001   Biso      1.000     C          0.612902  
         C5        1.0000    0.58070   0.19849   0.49255   Biso      1.000     C          -0.017032           
         C6        1.0000    0.75330   0.19878   0.46073   Biso      1.000     C          -0.199374           
         C7        1.0000    0.32040   0.99131   0.77772   Biso      1.000     C          -0.123047           
         C8        1.0000    0.09430   0.07128   0.18126   Biso      1.000     C          -0.172332           
         C9        1.0000    0.37320   0.94966   0.82588   Biso      1.000     C          -0.031284           
         C10       1.0000    0.33470   0.95748   0.90385   Biso      1.000     C          0.60987   
         C11       1.0000    0.27980   0.02685   0.65490   Biso      1.000     C          0.587044  
         C12       1.0000    0.34050   0.98165   0.70488   Biso      1.000     C          -0.004513           
         C13       1.0000    0.40570   0.92872   0.68126   Biso      1.000     C          -0.172334           
         C14       1.0000    0.46140   0.88692   0.72900   Biso      1.000     C          0.200602  
         C15       1.0000    0.52880   0.82933   0.70315   Biso      1.000     C          -0.525945           
         C16       1.0000    0.44770   0.89820   0.80118   Biso      1.000     C          -0.173186           
         C17       1.0000    0.15950   0.01835   0.20488   Biso      1.000     C          -0.004513           
         C18       1.0000    0.22020   0.97315   0.15490   Biso      1.000     C          0.587044  
         C19       1.0000    0.16530   0.04252   0.40385   Biso      1.000     C          0.60987   
         C20       1.0000    0.32040   0.50869   0.77772   Biso      1.000     C          -0.123047           
         C21       1.0000    0.37320   0.55034   0.82588   Biso      1.000     C          -0.031284           
         C22       1.0000    0.44770   0.60180   0.80118   Biso      1.000     C          -0.173186           
         C23       1.0000    0.33470   0.54252   0.90385   Biso      1.000     C          0.60987   
         C24       1.0000    0.27980   0.47315   0.65490   Biso      1.000     C          0.587044  
         C25       1.0000    0.34050   0.51835   0.70488   Biso      1.000     C          -0.004513           
         C26       1.0000    0.40570   0.57128   0.68126   Biso      1.000     C          -0.172334           
         C27       1.0000    0.46140   0.61308   0.72900   Biso      1.000     C          0.200602  
         C28       1.0000    0.52880   0.67067   0.70315   Biso      1.000     C          -0.525945           
         C29       1.0000    0.01600   0.64344   0.01001   Biso      1.000     C          0.612902  
         C30       1.0000    0.91930   0.69849   0.99255   Biso      1.000     C          -0.017032           
         C31       1.0000    0.74670   0.69878   0.96073   Biso      1.000     C          -0.199374           
         C32       1.0000    0.17960   0.00869   0.27772   Biso      1.000     C          -0.123044           
         C33       1.0000    0.65870   0.75000   0.94520   Biso      1.000     C          0.261701  
         C34       1.0000    0.05230   0.10180   0.30118   Biso      1.000     C          -0.173185           
         C35       1.0000    0.01600   0.85656   0.01001   Biso      1.000     C          0.612902  
         C36       1.0000    0.75330   0.30122   0.46073   Biso      1.000     C          -0.199375           
         C37       1.0000    0.91930   0.80151   0.99255   Biso      1.000     C          -0.017032           
         C38       1.0000    0.82040   0.50869   0.72228   Biso      1.000     C          -0.123047           
         C39       1.0000    0.47120   0.32933   0.29685   Biso      1.000     C          -0.525945           
         C40       1.0000    0.98400   0.35656   0.98999   Biso      1.000     C          0.612902  
         C41       1.0000    0.08070   0.30151   0.00745   Biso      1.000     C          -0.017032           
         C42       1.0000    0.25330   0.30122   0.03927   Biso      1.000     C          -0.199374           
         C43       1.0000    0.50350   0.75000   0.49110   Biso      1.000     C          -0.135078           
         C44       1.0000    0.15870   0.75000   0.55480   Biso      1.000     C          0.261701  
         C45       1.0000    0.53860   0.38692   0.27100   Biso      1.000     C          0.200601  
         C46       1.0000    0.96800   0.75000   0.58700   Biso      1.000     C          -0.706227           
         C47       1.0000    0.34130   0.25000   0.05480   Biso      1.000     C          0.261701  
         C48       1.0000    0.53200   0.25000   0.08700   Biso      1.000     C          -0.706227           
         C49       1.0000    0.49650   0.25000   0.50890   Biso      1.000     C          -0.135077           
         C50       1.0000    0.84130   0.25000   0.44520   Biso      1.000     C          0.261702  
         C51       1.0000    0.03200   0.25000   0.41300   Biso      1.000     C          -0.706227           
         C52       1.0000    0.00350   0.75000   0.00890   Biso      1.000     C          -0.135075           
         C53       1.0000    0.99650   0.25000   0.99110   Biso      1.000     C          -0.135076           
         C54       1.0000    0.59430   0.42872   0.31874   Biso      1.000     C          -0.172332           
         C55       1.0000    0.65950   0.48165   0.29512   Biso      1.000     C          -0.004513           
         C56       1.0000    0.72020   0.52685   0.34510   Biso      1.000     C          0.587044  
         C57       1.0000    0.87320   0.55034   0.67412   Biso      1.000     C          -0.031284           
         C58       1.0000    0.94770   0.60180   0.69882   Biso      1.000     C          -0.173186           
         C59       1.0000    0.83470   0.54252   0.59615   Biso      1.000     C          0.60987   
         C60       1.0000    0.77980   0.47315   0.84510   Biso      1.000     C          0.587044  
         C61       1.0000    0.84050   0.51835   0.79512   Biso      1.000     C          -0.004513           
         C62       1.0000    0.90570   0.57128   0.81874   Biso      1.000     C          -0.172334           
         C63       1.0000    0.96140   0.61308   0.77100   Biso      1.000     C          0.200602  
         C64       1.0000    0.02880   0.67067   0.79685   Biso      1.000     C          -0.525945           
         C65       1.0000    0.51600   0.64344   0.48999   Biso      1.000     C          0.612902  
         C66       1.0000    0.41930   0.69849   0.50745   Biso      1.000     C          -0.017031           
         C67       1.0000    0.24670   0.69878   0.53927   Biso      1.000     C          -0.199374           
         C68       1.0000    0.67960   0.49131   0.22228   Biso      1.000     C          -0.123047           
         C69       1.0000    0.62680   0.44966   0.17412   Biso      1.000     C          -0.031284           
         C70       1.0000    0.55230   0.39820   0.19882   Biso      1.000     C          -0.173186           
         C71       1.0000    0.66530   0.45748   0.09615   Biso      1.000     C          0.60987   
         C72       1.0000    0.74670   0.80122   0.96073   Biso      1.000     C          -0.199374           
         C73       1.0000    0.58070   0.30151   0.49255   Biso      1.000     C          -0.017031           
         C74       1.0000    0.46800   0.75000   0.91300   Biso      1.000     C          -0.706227           
         C75       1.0000    0.97120   0.32933   0.20315   Biso      1.000     C          -0.525945           
         C76       1.0000    0.98400   0.14344   0.98999   Biso      1.000     C          0.612902  
         C77       1.0000    0.47120   0.17067   0.29685   Biso      1.000     C          -0.525945           
         C78       1.0000    0.53860   0.11308   0.27100   Biso      1.000     C          0.200601  
         C79       1.0000    0.59430   0.07128   0.31874   Biso      1.000     C          -0.172332           
         C80       1.0000    0.65950   0.01835   0.29512   Biso      1.000     C          -0.004513           
         C81       1.0000    0.72020   0.97315   0.34510   Biso      1.000     C          0.587044  
         C82       1.0000    0.66530   0.04252   0.09615   Biso      1.000     C          0.60987   
         C83       1.0000    0.55230   0.10180   0.19882   Biso      1.000     C          -0.173185           
         C84       1.0000    0.62680   0.05034   0.17412   Biso      1.000     C          -0.031286           
         C85       1.0000    0.48400   0.35656   0.51001   Biso      1.000     C          0.612902  
         C86       1.0000    0.08070   0.19849   0.00745   Biso      1.000     C          -0.017031           
         C87       1.0000    0.24670   0.80122   0.53927   Biso      1.000     C          -0.199374           
         C88       1.0000    0.51600   0.85656   0.48999   Biso      1.000     C          0.612902  
         C89       1.0000    0.02880   0.82933   0.79685   Biso      1.000     C          -0.525945           
         C90       1.0000    0.96140   0.88692   0.77100   Biso      1.000     C          0.200601  
         C91       1.0000    0.90570   0.92872   0.81874   Biso      1.000     C          -0.172332           
         C92       1.0000    0.84050   0.98165   0.79512   Biso      1.000     C          -0.004513           
         C93       1.0000    0.77980   0.02685   0.84510   Biso      1.000     C          0.587044  
         C94       1.0000    0.83470   0.95748   0.59615   Biso      1.000     C          0.60987   
         C95       1.0000    0.94770   0.89820   0.69882   Biso      1.000     C          -0.173185           
         C96       1.0000    0.87320   0.94966   0.67412   Biso      1.000     C          -0.031286           
         C97       1.0000    0.82040   0.99131   0.72228   Biso      1.000     C          -0.123044           
         C98       1.0000    0.41930   0.80151   0.50745   Biso      1.000     C          -0.01703  
         C99       1.0000    0.25330   0.19878   0.03927   Biso      1.000     C          -0.199374           
         C100      1.0000    0.67960   0.00869   0.22228   Biso      1.000     C          -0.123044           
         C101      1.0000    0.03860   0.38692   0.22900   Biso      1.000     C          0.200601  
         C102      1.0000    0.09430   0.42872   0.18126   Biso      1.000     C          -0.172332           
         C103      1.0000    0.15950   0.48165   0.20488   Biso      1.000     C          -0.004513           
         C104      1.0000    0.22020   0.52685   0.15490   Biso      1.000     C          0.587044  
         C105      1.0000    0.16530   0.45748   0.40385   Biso      1.000     C          0.60987   
         C106      1.0000    0.05230   0.39820   0.30118   Biso      1.000     C          -0.173185           
         C107      1.0000    0.12680   0.44966   0.32588   Biso      1.000     C          -0.031286           
         C108      1.0000    0.17960   0.49131   0.27772   Biso      1.000     C          -0.123044           
         Cd1       1.0000    0.50000   0.50000   0.50000   Biso      1.000     Cd          1.102912  
         Cd2       1.0000    0.50000   0.00000   0.50000   Biso      1.000     Cd          1.102912  
         Cd3       1.0000    0.00000   0.00000   0.00000   Biso      1.000     Cd          1.102912  
         Cd4       1.0000    0.00000   0.50000   0.00000   Biso      1.000     Cd          1.102912  
         H1        1.0000    0.39240   0.18730   0.26160   Biso      1.000     H          0.163328  
         H2        1.0000    0.72830   0.97430   0.20610   Biso      1.000     H          0.131653  
         H3        1.0000    0.58810   0.07860   0.36730   Biso      1.000     H          0.122633  
         H4        1.0000    0.51130   0.12890   0.16630   Biso      1.000     H          0.124036  
         H5        1.0000    0.40470   0.16580   0.34040   Biso      1.000     H          0.165465  
         H6        1.0000    0.57390   0.19550   0.30490   Biso      1.000     H          0.162427  
         H7        1.0000    0.31000   0.16420   0.05020   Biso      1.000     H          0.128366  
         H8        1.0000    0.90470   0.33420   0.15960   Biso      1.000     H          0.165465  
         H9        1.0000    0.19000   0.66420   0.55020   Biso      1.000     H          0.128366  
         H10       1.0000    0.09530   0.66580   0.84040   Biso      1.000     H          0.165465  
         H11       1.0000    0.10042   0.25000   0.38643   Biso      1.000     H          0.239334  
         H12       1.0000    0.81000   0.33580   0.44980   Biso      1.000     H          0.128366  
         H13       1.0000    0.92610   0.69550   0.80490   Biso      1.000     H          0.162427  
         H14       1.0000    0.91190   0.57860   0.86730   Biso      1.000     H          0.122633  
         H15       1.0000    0.98870   0.62890   0.66630   Biso      1.000     H          0.124036  
         H16       1.0000    0.89050   0.72470   0.56040   Biso      1.000     H          0.187164  
         H17       1.0000    0.72830   0.52570   0.20610   Biso      1.000     H          0.131653  
         H18       1.0000    0.57390   0.30450   0.30490   Biso      1.000     H          0.162427  
         H19       1.0000    0.58810   0.42140   0.36730   Biso      1.000     H          0.122633  
         H20       1.0000    0.77170   0.02570   0.70610   Biso      1.000     H          0.131653  
         H21       1.0000    0.11730   0.75000   0.03100   Biso      1.000     H          0.133129  
         H22       1.0000    0.98870   0.87110   0.66630   Biso      1.000     H          0.124036  
         H23       1.0000    0.91190   0.92140   0.86730   Biso      1.000     H          0.122633  
         H24       1.0000    0.92610   0.80450   0.80490   Biso      1.000     H          0.162427  
         H25       1.0000    0.38270   0.25000   0.53100   Biso      1.000     H          0.133129  
         H26       1.0000    0.10760   0.81270   0.76160   Biso      1.000     H          0.163328  
         H27       1.0000    0.09530   0.83420   0.84040   Biso      1.000     H          0.165465  
         H28       1.0000    0.19000   0.83580   0.55020   Biso      1.000     H          0.128366  
         H29       1.0000    0.88270   0.25000   0.96900   Biso      1.000     H          0.133129  
         H30       1.0000    0.89050   0.77530   0.56040   Biso      1.000     H          0.187164  
         H31       1.0000    0.61730   0.75000   0.46900   Biso      1.000     H          0.133129  
         H32       1.0000    0.39958   0.75000   0.88643   Biso      1.000     H          0.239334  
         H33       1.0000    0.27170   0.47430   0.79390   Biso      1.000     H          0.131653  
         H34       1.0000    0.48870   0.62890   0.83370   Biso      1.000     H          0.124036  
         H35       1.0000    0.41190   0.57860   0.63270   Biso      1.000     H          0.122633  
         H36       1.0000    0.42610   0.69550   0.69510   Biso      1.000     H          0.162427  
         H37       1.0000    0.60760   0.68730   0.73840   Biso      1.000     H          0.163328  
         H38       1.0000    0.60950   0.27530   0.06040   Biso      1.000     H          0.187164  
         H39       1.0000    0.31000   0.33580   0.05020   Biso      1.000     H          0.128366  
         H40       1.0000    0.40470   0.33420   0.34040   Biso      1.000     H          0.165465  
         H41       1.0000    0.39240   0.31270   0.26160   Biso      1.000     H          0.163328  
         H42       1.0000    0.77170   0.47430   0.70610   Biso      1.000     H          0.131653  
         H43       1.0000    0.51130   0.37110   0.16630   Biso      1.000     H          0.124036  
         H44       1.0000    0.60950   0.22470   0.06040   Biso      1.000     H          0.187164  
         H45       1.0000    0.10760   0.68730   0.76160   Biso      1.000     H          0.163328  
         H46       1.0000    0.69000   0.66420   0.94980   Biso      1.000     H          0.128366  
         H47       1.0000    0.08810   0.42140   0.13270   Biso      1.000     H          0.122633  
         H48       1.0000    0.59530   0.66580   0.65960   Biso      1.000     H          0.165465  
         H49       1.0000    0.07390   0.30450   0.19510   Biso      1.000     H          0.162427  
         H50       1.0000    0.10950   0.27530   0.43960   Biso      1.000     H          0.187164  
         H51       1.0000    0.10950   0.22470   0.43960   Biso      1.000     H          0.187164  
         H52       1.0000    0.81000   0.16420   0.44980   Biso      1.000     H          0.128366  
         H53       1.0000    0.90470   0.16580   0.15960   Biso      1.000     H          0.165465  
         H54       1.0000    0.89240   0.18730   0.23840   Biso      1.000     H          0.163328  
         H55       1.0000    0.07390   0.19550   0.19510   Biso      1.000     H          0.162427  
         H56       1.0000    0.08810   0.07860   0.13270   Biso      1.000     H          0.122633  
         H57       1.0000    0.01130   0.37110   0.33370   Biso      1.000     H          0.124036  
         H58       1.0000    0.01130   0.12890   0.33370   Biso      1.000     H          0.124036  
         H59       1.0000    0.22830   0.97430   0.29390   Biso      1.000     H          0.131653  
         H60       1.0000    0.89958   0.75000   0.61357   Biso      1.000     H          0.239334  
         H61       1.0000    0.60042   0.25000   0.11357   Biso      1.000     H          0.239334  
         H62       1.0000    0.22830   0.52570   0.29390   Biso      1.000     H          0.131653  
         H63       1.0000    0.48870   0.87110   0.83370   Biso      1.000     H          0.124036  
         H64       1.0000    0.27170   0.02570   0.79390   Biso      1.000     H          0.131653  
         H65       1.0000    0.39050   0.77530   0.93960   Biso      1.000     H          0.187164  
         H66       1.0000    0.69000   0.83580   0.94980   Biso      1.000     H          0.128366  
         H67       1.0000    0.59530   0.83420   0.65960   Biso      1.000     H          0.165465  
         H68       1.0000    0.39050   0.72470   0.93960   Biso      1.000     H          0.187164  
         H69       1.0000    0.60760   0.81270   0.73840   Biso      1.000     H          0.163328  
         H70       1.0000    0.42610   0.80450   0.69510   Biso      1.000     H          0.162427  
         H71       1.0000    0.41190   0.92140   0.63270   Biso      1.000     H          0.122633  
         H72       1.0000    0.89240   0.31270   0.23840   Biso      1.000     H          0.163328  
         O1        1.0000    0.26950   0.57432   0.17657   Biso      1.000     O          -0.500771           
         O2        1.0000    0.22710   0.50305   0.92107   Biso      1.000     O          -0.580626           
         O3        1.0000    0.40720   0.57735   0.94630   Biso      1.000     O          -0.564344           
         O4        1.0000    0.32700   0.35084   0.53781   Biso      1.000     O          -0.572919           
         O5        1.0000    0.55980   0.40294   0.49600   Biso      1.000     O          -0.569254           
         O6        1.0000    0.27340   0.48437   0.58713   Biso      1.000     O          -0.62114  
         O7        1.0000    0.22660   0.51563   0.08713   Biso      1.000     O          -0.62114  
         O8        1.0000    0.05980   0.40294   0.00400   Biso      1.000     O          -0.569254           
         O9        1.0000    0.59280   0.42265   0.05370   Biso      1.000     O          -0.564344           
         O10       1.0000    0.72660   0.51563   0.41287   Biso      1.000     O          -0.62114  
         O11       1.0000    0.76950   0.57432   0.32343   Biso      1.000     O          -0.500771           
         O12       1.0000    0.82700   0.35084   0.96219   Biso      1.000     O          -0.572919           
         O13       1.0000    0.23050   0.42568   0.67657   Biso      1.000     O          -0.500771           
         O14       1.0000    0.94020   0.59706   0.99600   Biso      1.000     O          -0.569254           
         O15       1.0000    0.17300   0.64916   0.03781   Biso      1.000     O          -0.572919           
         O16       1.0000    0.27290   0.49695   0.42107   Biso      1.000     O          -0.580626           
         O17       1.0000    0.77290   0.49695   0.07893   Biso      1.000     O          -0.580626           
         O18       1.0000    0.09280   0.42265   0.44630   Biso      1.000     O          -0.564344           
         O19       1.0000    0.76950   0.92568   0.32343   Biso      1.000     O          -0.500771           
         O20       1.0000    0.73050   0.07432   0.82343   Biso      1.000     O          -0.500771           
         O21       1.0000    0.23050   0.07432   0.67657   Biso      1.000     O          -0.500771           
         O22       1.0000    0.32700   0.14916   0.53781   Biso      1.000     O          -0.572919           
         O23       1.0000    0.55980   0.09706   0.49600   Biso      1.000     O          -0.569254           
         O24       1.0000    0.26950   0.92568   0.17657   Biso      1.000     O          -0.500771           
         O25       1.0000    0.22660   0.98437   0.08713   Biso      1.000     O          -0.62114  
         O26       1.0000    0.27340   0.01563   0.58713   Biso      1.000     O          -0.62114  
         O27       1.0000    0.67300   0.85084   0.46219   Biso      1.000     O          -0.572919           
         O28       1.0000    0.44020   0.90294   0.50400   Biso      1.000     O          -0.569254           
         O29       1.0000    0.72710   0.99695   0.57893   Biso      1.000     O          -0.580626           
         O30       1.0000    0.77340   0.01563   0.91287   Biso      1.000     O          -0.62114  
         O31       1.0000    0.72710   0.50305   0.57893   Biso      1.000     O          -0.580626           
         O32       1.0000    0.90720   0.57735   0.55370   Biso      1.000     O          -0.564344           
         O33       1.0000    0.94020   0.90294   0.99600   Biso      1.000     O          -0.569254           
         O34       1.0000    0.77340   0.48437   0.91287   Biso      1.000     O          -0.62114  
         O35       1.0000    0.44020   0.59706   0.50400   Biso      1.000     O          -0.569254           
         O36       1.0000    0.67300   0.64916   0.46219   Biso      1.000     O          -0.572919           
         O37       1.0000    0.09280   0.07735   0.44630   Biso      1.000     O          -0.564344           
         O38       1.0000    0.40720   0.92265   0.94630   Biso      1.000     O          -0.564344           
         O39       1.0000    0.27290   0.00305   0.42107   Biso      1.000     O          -0.580626           
         O40       1.0000    0.77290   0.00305   0.07893   Biso      1.000     O          -0.580626           
         O41       1.0000    0.59280   0.07735   0.05370   Biso      1.000     O          -0.564344           
         O42       1.0000    0.22710   0.99695   0.92107   Biso      1.000     O          -0.580626           
         O43       1.0000    0.72660   0.98437   0.41287   Biso      1.000     O          -0.62114  
         O44       1.0000    0.05980   0.09706   0.00400   Biso      1.000     O          -0.569254           
         O45       1.0000    0.82700   0.14916   0.96219   Biso      1.000     O          -0.572919           
         O46       1.0000    0.90720   0.92265   0.55370   Biso      1.000     O          -0.564344           
         O47       1.0000    0.73050   0.42568   0.82343   Biso      1.000     O          -0.500771           
         O48       1.0000    0.17300   0.85084   0.03781   Biso      1.000     O          -0.572919           
         Zn1       1.0000    0.15034   0.41321   0.54868   Biso      1.000     Zn          1.012391  
         Zn2       1.0000    0.34966   0.91321   0.04868   Biso      1.000     Zn          1.012391  
         Zn3       1.0000    0.15034   0.08679   0.54868   Biso      1.000     Zn          1.012392  
         Zn4       1.0000    0.65034   0.08679   0.95132   Biso      1.000     Zn          1.012391  
         Zn5       1.0000    0.65034   0.41321   0.95132   Biso      1.000     Zn          1.012391  
         Zn6       1.0000    0.34966   0.58679   0.04868   Biso      1.000     Zn          1.012391  
         Zn7       1.0000    0.84966   0.58679   0.45132   Biso      1.000     Zn          1.012391  
         Zn8       1.0000    0.84966   0.91321   0.45132   Biso      1.000     Zn          1.012391 