
##########################################################################
#               Crystallographic Information Format file
#               Produced by PyCifRW module
#
#  This is a CIF file.  CIF has been adopted by the International
#  Union of Crystallography as the standard for data archiving and
#  transmission.
#
#  For information on this file format, follow the CIF links at
#  http://www.iucr.org
##########################################################################

data_image0

_cell_length_a                          14.8174
_cell_length_b                          14.8174
_cell_length_c                          14.8174
_cell_angle_alpha                       60
_cell_angle_beta                        60
_cell_angle_gamma                       60
_symmetry_space_group_name_H-M          'P 1'
_symmetry_int_tables_number             1
loop_
  _symmetry_equiv_pos_as_xyz
         'x, y, z' 
loop_
  _atom_site_label
  _atom_site_occupancy
  _atom_site_fract_x
  _atom_site_fract_y
  _atom_site_fract_z
  _atom_site_thermal_displace_type
  _atom_site_B_iso_or_equiv
  _atom_site_type_symbol
  _atom_site_charge
         C1        1.0000    0.55230   0.07750   0.44770   Biso      1.000     C          -0.097061           
         C2        1.0000    0.44770   0.55230   0.92250   Biso      1.000     C          -0.09705599999999999          
         C3        1.0000    0.31260   0.68740   0.00000   Biso      1.000     C          0.693558  
         C4        1.0000    0.00000   0.40660   0.00000   Biso      1.000     C          -0.031992           
         C5        1.0000    0.92250   0.55230   0.44770   Biso      1.000     C          -0.09705599999999999          
         C6        1.0000    0.00000   0.31260   0.00000   Biso      1.000     C          0.693561  
         C7        1.0000    0.40660   0.00000   0.59340   Biso      1.000     C          -0.031994           
         C8        1.0000    0.44770   0.07750   0.92250   Biso      1.000     C          -0.09705599999999999          
         C9        1.0000    0.31260   0.00000   0.68740   Biso      1.000     C          0.693561  
         C10       1.0000    0.00000   0.59340   0.00000   Biso      1.000     C          -0.031993           
         C11       1.0000    0.07750   0.55230   0.44770   Biso      1.000     C          -0.097055           
         C12       1.0000    0.40660   0.59340   0.00000   Biso      1.000     C          -0.031951           
         C13       1.0000    0.00000   0.68740   0.00000   Biso      1.000     C          0.6935600000000001  
         C14       1.0000    0.55230   0.07750   0.92250   Biso      1.000     C          -0.09705599999999999          
         C15       1.0000    0.68740   0.00000   0.31260   Biso      1.000     C          0.693554  
         C16       1.0000    0.92250   0.44770   0.55230   Biso      1.000     C          -0.097055           
         C17       1.0000    0.07750   0.44770   0.92250   Biso      1.000     C          -0.097014           
         C18       1.0000    0.44770   0.92250   0.07750   Biso      1.000     C          -0.09705599999999999          
         C19       1.0000    0.55230   0.92250   0.44770   Biso      1.000     C          -0.097061           
         C20       1.0000    0.55230   0.44770   0.07750   Biso      1.000     C          -0.097055           
         C21       1.0000    0.92250   0.55230   0.07750   Biso      1.000     C          -0.097015           
         C22       1.0000    0.07750   0.92250   0.55230   Biso      1.000     C          -0.097051           
         C23       1.0000    0.44770   0.07750   0.55230   Biso      1.000     C          -0.09700800000000001          
         C24       1.0000    0.59340   0.00000   0.40660   Biso      1.000     C          -0.031908           
         C25       1.0000    0.00000   0.00000   0.68740   Biso      1.000     C          0.693557  
         C26       1.0000    0.55230   0.92250   0.07750   Biso      1.000     C          -0.09705599999999999          
         C27       1.0000    0.00000   0.00000   0.59340   Biso      1.000     C          -0.031951           
         C28       1.0000    0.07750   0.55230   0.92250   Biso      1.000     C          -0.097014           
         C29       1.0000    0.40660   0.00000   0.00000   Biso      1.000     C          -0.031908           
         C30       1.0000    0.44770   0.92250   0.55230   Biso      1.000     C          -0.09700800000000001          
         C31       1.0000    0.31260   0.00000   0.00000   Biso      1.000     C          0.693554  
         C32       1.0000    0.00000   0.59340   0.40660   Biso      1.000     C          -0.031909           
         C33       1.0000    0.07750   0.44770   0.55230   Biso      1.000     C          -0.097055           
         C34       1.0000    0.00000   0.68740   0.31260   Biso      1.000     C          0.693554  
         C35       1.0000    0.59340   0.00000   0.00000   Biso      1.000     C          -0.031909           
         C36       1.0000    0.44770   0.55230   0.07750   Biso      1.000     C          -0.097013           
         C37       1.0000    0.92250   0.44770   0.07750   Biso      1.000     C          -0.097014           
         C38       1.0000    0.00000   0.40660   0.59340   Biso      1.000     C          -0.031909           
         C39       1.0000    0.68740   0.31260   0.00000   Biso      1.000     C          0.693558  
         C40       1.0000    0.68740   0.00000   0.00000   Biso      1.000     C          0.693553  
         C41       1.0000    0.59340   0.40660   0.00000   Biso      1.000     C          -0.031951           
         C42       1.0000    0.00000   0.00000   0.31260   Biso      1.000     C          0.693558  
         C43       1.0000    0.07750   0.92250   0.44770   Biso      1.000     C          -0.097051           
         C44       1.0000    0.00000   0.00000   0.40660   Biso      1.000     C          -0.03195  
         C45       1.0000    0.00000   0.31260   0.68740   Biso      1.000     C          0.693554  
         C46       1.0000    0.92250   0.07750   0.55230   Biso      1.000     C          -0.09701900000000001          
         C47       1.0000    0.55230   0.44770   0.92250   Biso      1.000     C          -0.097014           
         C48       1.0000    0.92250   0.07750   0.44770   Biso      1.000     C          -0.097018           
         H1        1.0000    0.14413   0.40923   0.85587   Biso      1.000     H          0.10839000000000001           
         H2        1.0000    0.59077   0.85587   0.40923   Biso      1.000     H          0.108393  
         H3        1.0000    0.85587   0.59077   0.14413   Biso      1.000     H          0.10839000000000001           
         H4        1.0000    0.90640   0.90640   0.28079   Biso      1.000     H          0.504424  
         H5        1.0000    0.40923   0.14413   0.59077   Biso      1.000     H          0.10838900000000001           
         H6        1.0000    0.90640   0.90640   0.90640   Biso      1.000     H          0.504354  
         H7        1.0000    0.28079   0.90640   0.90640   Biso      1.000     H          0.504423  
         H8        1.0000    0.85587   0.14413   0.40923   Biso      1.000     H          0.10839000000000001           
         H9        1.0000    0.40923   0.59077   0.85587   Biso      1.000     H          0.108392  
         H10       1.0000    0.59077   0.85587   0.14413   Biso      1.000     H          0.108393  
         H11       1.0000    0.59077   0.14413   0.40923   Biso      1.000     H          0.108393  
         H12       1.0000    0.14413   0.59077   0.85587   Biso      1.000     H          0.10839000000000001           
         H13       1.0000    0.40923   0.85587   0.59077   Biso      1.000     H          0.10838900000000001           
         H14       1.0000    0.85587   0.40923   0.14413   Biso      1.000     H          0.10839000000000001           
         H15       1.0000    0.40923   0.59077   0.14413   Biso      1.000     H          0.10838900000000001           
         H16       1.0000    0.85587   0.14413   0.59077   Biso      1.000     H          0.10839000000000001           
         H17       1.0000    0.59077   0.40923   0.85587   Biso      1.000     H          0.10838900000000001           
         H18       1.0000    0.14413   0.85587   0.40923   Biso      1.000     H          0.108393  
         H19       1.0000    0.14413   0.40923   0.59077   Biso      1.000     H          0.108393  
         H20       1.0000    0.85587   0.59077   0.40923   Biso      1.000     H          0.108392  
         H21       1.0000    0.40923   0.14413   0.85587   Biso      1.000     H          0.108393  
         H22       1.0000    0.14413   0.59077   0.40923   Biso      1.000     H          0.108393  
         H23       1.0000    0.59077   0.14413   0.85587   Biso      1.000     H          0.108393  
         H24       1.0000    0.90640   0.28079   0.90640   Biso      1.000     H          0.504423  
         H25       1.0000    0.40923   0.85587   0.14413   Biso      1.000     H          0.108393  
         H26       1.0000    0.14413   0.85587   0.59077   Biso      1.000     H          0.108393  
         H27       1.0000    0.85587   0.40923   0.59077   Biso      1.000     H          0.108392  
         H28       1.0000    0.59077   0.40923   0.14413   Biso      1.000     H          0.108393  
         O1        1.0000    0.72690   0.27310   0.07550   Biso      1.000     O          -0.592988           
         O2        1.0000    0.27310   0.72690   0.92450   Biso      1.000     O          -0.592987           
         O3        1.0000    0.27310   0.92450   0.72690   Biso      1.000     O          -0.592987           
         O4        1.0000    0.07550   0.27310   0.92450   Biso      1.000     O          -0.592988           
         O5        1.0000    0.92450   0.07550   0.72690   Biso      1.000     O          -0.592988           
         O6        1.0000    0.27310   0.07550   0.72690   Biso      1.000     O          -0.592988           
         O7        1.0000    0.78640   0.07120   0.07120   Biso      1.000     O          -1.057346           
         O8        1.0000    0.07120   0.78640   0.07120   Biso      1.000     O          -1.057346           
         O9        1.0000    0.07120   0.07120   0.07120   Biso      1.000     O          -1.057341           
         O10       1.0000    0.92880   0.92880   0.21360   Biso      1.000     O          -1.196389           
         O11       1.0000    0.92450   0.72690   0.07550   Biso      1.000     O          -0.592988           
         O12       1.0000    0.92880   0.92880   0.92880   Biso      1.000     O          -1.196289           
         O13       1.0000    0.07550   0.92450   0.27310   Biso      1.000     O          -0.592988           
         O14       1.0000    0.21360   0.92880   0.92880   Biso      1.000     O          -1.196389           
         O15       1.0000    0.72690   0.92450   0.27310   Biso      1.000     O          -0.592987           
         O16       1.0000    0.07120   0.07120   0.78640   Biso      1.000     O          -1.057346           
         O17       1.0000    0.07550   0.92450   0.72690   Biso      1.000     O          -0.592988           
         O18       1.0000    0.27310   0.72690   0.07550   Biso      1.000     O          -0.592989           
         O19       1.0000    0.92450   0.27310   0.07550   Biso      1.000     O          -0.592988           
         O20       1.0000    0.72690   0.92450   0.07550   Biso      1.000     O          -0.592988           
         O21       1.0000    0.07550   0.27310   0.72690   Biso      1.000     O          -0.592989           
         O22       1.0000    0.92450   0.72690   0.27310   Biso      1.000     O          -0.592987           
         O23       1.0000    0.72690   0.27310   0.92450   Biso      1.000     O          -0.592988           
         O24       1.0000    0.72690   0.07550   0.27310   Biso      1.000     O          -0.592988           
         O25       1.0000    0.07550   0.72690   0.27310   Biso      1.000     O          -0.592989           
         O26       1.0000    0.27310   0.92450   0.07550   Biso      1.000     O          -0.592989           
         O27       1.0000    0.72690   0.07550   0.92450   Biso      1.000     O          -0.592989           
         O28       1.0000    0.27310   0.07550   0.92450   Biso      1.000     O          -0.592989           
         O29       1.0000    0.92450   0.27310   0.72690   Biso      1.000     O          -0.592987           
         O30       1.0000    0.92450   0.07550   0.27310   Biso      1.000     O          -0.592989           
         O31       1.0000    0.07550   0.72690   0.92450   Biso      1.000     O          -0.592988           
         O32       1.0000    0.92880   0.21360   0.92880   Biso      1.000     O          -1.19639  
         Zr1       1.0000    0.12370   0.87630   0.12370   Biso      1.000     Zr          2.1695279999999997  
         Zr2       1.0000    0.87630   0.12370   0.87630   Biso      1.000     Zr          2.1695029999999997  
         Zr3       1.0000    0.87630   0.12370   0.12370   Biso      1.000     Zr          2.1695279999999997  
         Zr4       1.0000    0.12370   0.87630   0.87630   Biso      1.000     Zr          2.169502  
         Zr5       1.0000    0.12370   0.12370   0.87630   Biso      1.000     Zr          2.1695279999999997  
         Zr6       1.0000    0.87630   0.87630   0.12370   Biso      1.000     Zr          2.1695029999999997 