
##########################################################################
#               Crystallographic Information Format file
#               Produced by PyCifRW module
#
#  This is a CIF file.  CIF has been adopted by the International
#  Union of Crystallography as the standard for data archiving and
#  transmission.
#
#  For information on this file format, follow the CIF links at
#  http://www.iucr.org
##########################################################################

data_image0

_cell_length_a                          24.36
_cell_length_b                          24.36
_cell_length_c                          16.909
_cell_angle_alpha                       90
_cell_angle_beta                        90
_cell_angle_gamma                       90
_symmetry_space_group_name_H-M          'P 1'
_symmetry_int_tables_number             1
loop_
  _symmetry_equiv_pos_as_xyz
         'x, y, z' 
loop_
  _atom_site_label
  _atom_site_occupancy
  _atom_site_fract_x
  _atom_site_fract_y
  _atom_site_fract_z
  _atom_site_thermal_displace_type
  _atom_site_B_iso_or_equiv
  _atom_site_type_symbol
  _atom_site_charge
         C1        1.0000    0.34069   0.21081   0.98469   Biso      1.000     C          0.089967  
         C2        1.0000    0.67606   0.53325   0.69769   Biso      1.000     C          -0.023311           
         C3        1.0000    0.67045   0.58980   0.71230   Biso      1.000     C          -0.1313   
         C4        1.0000    0.92318   0.02605   0.31847   Biso      1.000     C          0.255478  
         C5        1.0000    0.93191   0.08219   0.33576   Biso      1.000     C          -0.028741           
         C6        1.0000    0.96170   0.11423   0.28131   Biso      1.000     C          -0.125115           
         C7        1.0000    0.98463   0.09049   0.21293   Biso      1.000     C          -0.129364           
         C8        1.0000    0.97862   0.03403   0.19789   Biso      1.000     C          -0.025268           
         C9        1.0000    0.94712   0.00258   0.25093   Biso      1.000     C          -0.210244           
         C10       1.0000    0.84342   0.75866   0.04044   Biso      1.000     C          0.261184  
         C11       1.0000    0.84354   0.71459   0.98529   Biso      1.000     C          -0.034702           
         C12       1.0000    0.88688   0.71193   0.93011   Biso      1.000     C          -0.125062           
         C13       1.0000    0.92899   0.75115   0.92972   Biso      1.000     C          -0.136235           
         C14       1.0000    0.75819   0.20516   0.43087   Biso      1.000     C          0.260107  
         C15       1.0000    0.80299   0.20770   0.48473   Biso      1.000     C          -0.036337           
         C16       1.0000    0.80401   0.25104   0.53997   Biso      1.000     C          -0.123837           
         C17       1.0000    0.76261   0.29106   0.54133   Biso      1.000     C          -0.136499           
         C18       1.0000    0.71983   0.29004   0.48579   Biso      1.000     C          -0.015241           
         C19       1.0000    0.71843   0.24719   0.43035   Biso      1.000     C          -0.215128           
         C20       1.0000    0.64761   0.50550   0.63035   Biso      1.000     C          0.612855  
         C21       1.0000    0.50584   0.36688   0.63231   Biso      1.000     C          0.609427  
         C22       1.0000    0.67655   0.33319   0.48581   Biso      1.000     C          0.615535  
         C23       1.0000    0.64862   0.50233   0.33750   Biso      1.000     C          0.608763  
         C24       1.0000    0.50438   0.36616   0.33934   Biso      1.000     C          0.611611  
         C25       1.0000    0.47861   0.53802   0.48373   Biso      1.000     C          0.613429  
         C26       1.0000    0.93020   0.79325   0.98625   Biso      1.000     C          -0.016192           
         C27       1.0000    0.88744   0.79625   0.04180   Biso      1.000     C          -0.218015           
         C28       1.0000    0.47557   0.33897   0.27155   Biso      1.000     C          -0.026648           
         C29       1.0000    0.50650   0.31441   0.21084   Biso      1.000     C          -0.132487           
         C30       1.0000    0.48113   0.29284   0.14352   Biso      1.000     C          -0.128747           
         C31       1.0000    0.94956   0.99739   0.71305   Biso      1.000     C          -0.208972           
         C32       1.0000    0.97686   0.02989   0.76955   Biso      1.000     C          -0.024729           
         C33       1.0000    0.97797   0.08706   0.75811   Biso      1.000     C          -0.130485           
         C34       1.0000    0.95432   0.11072   0.69025   Biso      1.000     C          -0.127907           
         C35       1.0000    0.16639   0.78347   0.32249   Biso      1.000     C          0.258671  
         C36       1.0000    0.22327   0.78977   0.33714   Biso      1.000     C          -0.028611           
         C37       1.0000    0.25533   0.81742   0.28039   Biso      1.000     C          -0.128378           
         C38       1.0000    0.23118   0.84053   0.21242   Biso      1.000     C          -0.129205           
         C39       1.0000    0.17422   0.83683   0.19975   Biso      1.000     C          -0.024557           
         C40       1.0000    0.14257   0.80752   0.25514   Biso      1.000     C          -0.208639           
         C41       1.0000    0.69996   0.61001   0.19049   Biso      1.000     C          -0.126257           
         C42       1.0000    0.72543   0.57726   0.13249   Biso      1.000     C          -0.029625           
         C43       1.0000    0.72927   0.52001   0.14578   Biso      1.000     C          0.259259  
         C44       1.0000    0.70488   0.49668   0.21322   Biso      1.000     C          -0.207127           
         C45       1.0000    0.23241   0.84016   0.75848   Biso      1.000     C          -0.131218           
         C46       1.0000    0.17565   0.83566   0.77227   Biso      1.000     C          -0.02349  
         C47       1.0000    0.14396   0.80538   0.71795   Biso      1.000     C          -0.210814           
         C48       1.0000    0.16747   0.78138   0.65038   Biso      1.000     C          0.257715  
         C49       1.0000    0.42389   0.29492   0.13407   Biso      1.000     C          -0.031824           
         C50       1.0000    0.22405   0.78854   0.63453   Biso      1.000     C          -0.029313           
         C51       1.0000    0.67762   0.52917   0.26977   Biso      1.000     C          -0.022606           
         C52       1.0000    0.67647   0.58633   0.25838   Biso      1.000     C          -0.133348           
         C53       1.0000    0.38155   0.57189   0.50395   Biso      1.000     C          -0.13068  
         C54       1.0000    0.43645   0.58276   0.48351   Biso      1.000     C          -0.027109           
         C55       1.0000    0.45083   0.63702   0.46339   Biso      1.000     C          -0.210253           
         C56       1.0000    0.41152   0.67956   0.46313   Biso      1.000     C          0.256866  
         C57       1.0000    0.35648   0.66811   0.48423   Biso      1.000     C          -0.030942           
         C58       1.0000    0.34229   0.61405   0.50486   Biso      1.000     C          -0.130573           
         C59       1.0000    0.69332   0.61359   0.78065   Biso      1.000     C          -0.128315           
         C60       1.0000    0.72270   0.58154   0.83555   Biso      1.000     C          -0.029026           
         C61       1.0000    0.73113   0.52527   0.81864   Biso      1.000     C          0.258034  
         C62       1.0000    0.70719   0.50175   0.75110   Biso      1.000     C          -0.210803           
         C63       1.0000    0.92509   0.02067   0.64567   Biso      1.000     C          0.256098  
         C64       1.0000    0.92877   0.07791   0.63240   Biso      1.000     C          -0.02598  
         C65       1.0000    0.25625   0.81700   0.69029   Biso      1.000     C          -0.124302           
         C66       1.0000    0.39193   0.31862   0.19547   Biso      1.000     C          0.258842  
         C67       1.0000    0.41804   0.33995   0.26366   Biso      1.000     C          -0.210521           
         C68       1.0000    0.22808   0.78939   0.48587   Biso      1.000     C          -0.201408           
         C69       1.0000    0.29974   0.16526   0.98408   Biso      1.000     C          -0.030973           
         C70       1.0000    0.31444   0.11049   0.00245   Biso      1.000     C          0.257061  
         C71       1.0000    0.27412   0.06888   0.00159   Biso      1.000     C          -0.209821           
         C72       1.0000    0.24883   0.76956   0.55823   Biso      1.000     C          0.089818  
         C73       1.0000    0.21895   0.08068   0.98338   Biso      1.000     C          -0.026214           
         C74       1.0000    0.20493   0.13530   0.96523   Biso      1.000     C          -0.131809           
         C75       1.0000    0.80051   0.67030   0.98517   Biso      1.000     C          0.088153  
         C76       1.0000    0.77913   0.65010   0.91303   Biso      1.000     C          -0.199484           
         C77       1.0000    0.74177   0.60605   0.91186   Biso      1.000     C          0.089731  
         C78       1.0000    0.72387   0.58356   0.98405   Biso      1.000     C          -0.196957           
         C79       1.0000    0.74445   0.60272   0.05674   Biso      1.000     C          0.087644  
         C80       1.0000    0.78319   0.64558   0.05663   Biso      1.000     C          -0.20656  
         C81       1.0000    0.84875   0.16625   0.48450   Biso      1.000     C          0.089813  
         C82       1.0000    0.31319   0.71147   0.48476   Biso      1.000     C          0.092335  
         C83       1.0000    0.86841   0.14392   0.55634   Biso      1.000     C          -0.202979           
         C84       1.0000    0.87267   0.14845   0.41272   Biso      1.000     C          -0.202296           
         C85       1.0000    0.91234   0.10651   0.41187   Biso      1.000     C          0.085925  
         C86       1.0000    0.93094   0.08480   0.48416   Biso      1.000     C          -0.197267           
         C87       1.0000    0.29187   0.73198   0.41301   Biso      1.000     C          -0.206629           
         C88       1.0000    0.24483   0.17684   0.96507   Biso      1.000     C          -0.132121           
         C89       1.0000    0.29154   0.73062   0.55705   Biso      1.000     C          -0.201786           
         C90       1.0000    0.36042   0.23281   0.91297   Biso      1.000     C          -0.205044           
         C91       1.0000    0.39996   0.27508   0.91283   Biso      1.000     C          0.093995  
         C92       1.0000    0.41938   0.34053   0.70736   Biso      1.000     C          -0.209682           
         C93       1.0000    0.47698   0.33993   0.70029   Biso      1.000     C          -0.025227           
         C94       1.0000    0.41929   0.29524   0.98575   Biso      1.000     C          -0.19576  
         C95       1.0000    0.39987   0.27425   0.05814   Biso      1.000     C          0.091306  
         C96       1.0000    0.50766   0.31604   0.76177   Biso      1.000     C          -0.130368           
         C97       1.0000    0.24867   0.77043   0.41291   Biso      1.000     C          0.089249  
         C98       1.0000    0.48190   0.29454   0.82889   Biso      1.000     C          -0.126303           
         C99       1.0000    0.14786   0.86430   0.83966   Biso      1.000     C          0.610814  
         C100      1.0000    0.97494   0.83488   0.98596   Biso      1.000     C          0.616557  
         C101      1.0000    0.00690   0.00618   0.13046   Biso      1.000     C          0.612036  
         C102      1.0000    0.14649   0.86519   0.13202   Biso      1.000     C          0.61065   
         C103      1.0000    0.17622   0.03646   0.98362   Biso      1.000     C          0.613347  
         C104      1.0000    0.42453   0.29614   0.83741   Biso      1.000     C          -0.03173  
         C105      1.0000    0.39290   0.31939   0.77533   Biso      1.000     C          0.257244  
         C106      1.0000    0.36074   0.23165   0.05696   Biso      1.000     C          -0.207965           
         C107      1.0000    0.00575   0.00296   0.83734   Biso      1.000     C          0.609654  
         C108      1.0000    0.90939   0.10315   0.55672   Biso      1.000     C          0.089424  
         H1        1.0000    0.78530   0.50102   0.04994   Biso      1.000     H          0.291454  
         H2        1.0000    0.70746   0.45265   0.22143   Biso      1.000     H          0.122621  
         H3        1.0000    0.50658   0.27484   0.09780   Biso      1.000     H          0.1039    
         H4        1.0000    0.55084   0.31257   0.21455   Biso      1.000     H          0.107977  
         H5        1.0000    0.65589   0.61262   0.30067   Biso      1.000     H          0.108561  
         H6        1.0000    0.88704   0.82949   0.08438   Biso      1.000     H          0.11811   
         H7        1.0000    0.55204   0.31457   0.75871   Biso      1.000     H          0.110587  
         H8        1.0000    0.14909   0.72530   0.41636   Biso      1.000     H          0.292198  
         H9        1.0000    0.16299   0.14599   0.95064   Biso      1.000     H          0.10949   
         H10       1.0000    0.69668   0.65396   0.18192   Biso      1.000     H          0.101853  
         H11       1.0000    0.00861   0.11590   0.17334   Biso      1.000     H          0.111772  
         H12       1.0000    0.25808   0.86313   0.79895   Biso      1.000     H          0.111548  
         H13       1.0000    0.75809   0.44244   0.09963   Biso      1.000     H          0.3079    
         H14       1.0000    0.31034   0.34013   0.23469   Biso      1.000     H          0.307641  
         H15       1.0000    0.31289   0.31468   0.13590   Biso      1.000     H          0.299597  
         H16       1.0000    0.08979   0.75059   0.36635   Biso      1.000     H          0.305867  
         H17       1.0000    0.96142   0.74781   0.88617   Biso      1.000     H          0.107318  
         H18       1.0000    0.39488   0.35921   0.66117   Biso      1.000     H          0.121042  
         H19       1.0000    0.50714   0.27688   0.87512   Biso      1.000     H          0.104307  
         H20       1.0000    0.31147   0.34009   0.73450   Biso      1.000     H          0.306734  
         H21       1.0000    0.31349   0.31591   0.83397   Biso      1.000     H          0.297448  
         H22       1.0000    0.76752   0.44930   0.85887   Biso      1.000     H          0.306611  
         H23       1.0000    0.23270   0.21845   0.95070   Biso      1.000     H          0.102294  
         H24       1.0000    0.88869   0.67884   0.88744   Biso      1.000     H          0.105813  
         H25       1.0000    0.28599   0.02717   0.01575   Biso      1.000     H          0.122382  
         H26       1.0000    0.38043   0.05576   0.03531   Biso      1.000     H          0.307116  
         H27       1.0000    0.79122   0.50871   0.91023   Biso      1.000     H          0.292841  
         H28       1.0000    0.71327   0.45834   0.74017   Biso      1.000     H          0.122129  
         H29       1.0000    0.68662   0.65683   0.79198   Biso      1.000     H          0.108376  
         H30       1.0000    0.76479   0.32371   0.58470   Biso      1.000     H          0.107239  
         H31       1.0000    0.99857   0.11336   0.80035   Biso      1.000     H          0.110447  
         H32       1.0000    0.36895   0.53075   0.52006   Biso      1.000     H          0.107999  
         H33       1.0000    0.39336   0.35907   0.30928   Biso      1.000     H          0.123116  
         H34       1.0000    0.25686   0.86275   0.17110   Biso      1.000     H          0.109195  
         H35       1.0000    0.64675   0.61526   0.67243   Biso      1.000     H          0.110284  
         H36       1.0000    0.40171   0.12502   0.01960   Biso      1.000     H          0.301829  
         H37       1.0000    0.29900   0.82256   0.28992   Biso      1.000     H          0.105637  
         H38       1.0000    0.95748   0.15467   0.68164   Biso      1.000     H          0.107551  
         H39       1.0000    0.80027   0.79762   0.13693   Biso      1.000     H          0.302893  
         H40       1.0000    0.96856   0.15741   0.29296   Biso      1.000     H          0.110732  
         H41       1.0000    0.94074   0.95926   0.23971   Biso      1.000     H          0.118787  
         H42       1.0000    0.69428   0.55032   0.98356   Biso      1.000     H          0.118999  
         H43       1.0000    0.80064   0.65889   0.11234   Biso      1.000     H          0.110351  
         H44       1.0000    0.76985   0.12149   0.38963   Biso      1.000     H          0.296956  
         H45       1.0000    0.72022   0.15991   0.33557   Biso      1.000     H          0.305698  
         H46       1.0000    0.09879   0.80295   0.24598   Biso      1.000     H          0.121728  
         H47       1.0000    0.83738   0.25435   0.58201   Biso      1.000     H          0.106019  
         H48       1.0000    0.30778   0.71673   0.35734   Biso      1.000     H          0.117064  
         H49       1.0000    0.19505   0.81921   0.48633   Biso      1.000     H          0.120325  
         H50       1.0000    0.30733   0.71452   0.61229   Biso      1.000     H          0.115855  
         H51       1.0000    0.85058   0.15685   0.61199   Biso      1.000     H          0.111621  
         H52       1.0000    0.96177   0.05271   0.48386   Biso      1.000     H          0.119759  
         H53       1.0000    0.85898   0.16577   0.35710   Biso      1.000     H          0.112162  
         H54       1.0000    0.68480   0.24509   0.38849   Biso      1.000     H          0.120091  
         H55       1.0000    0.86300   0.00956   0.41002   Biso      1.000     H          0.28942   
         H56       1.0000    0.88616   0.95020   0.35803   Biso      1.000     H          0.303885  
         H57       1.0000    0.94701   0.95335   0.72124   Biso      1.000     H          0.122373  
         H58       1.0000    0.09099   0.74708   0.60837   Biso      1.000     H          0.305265  
         H59       1.0000    0.15015   0.72304   0.55672   Biso      1.000     H          0.291967  
         H60       1.0000    0.34597   0.21610   0.85735   Biso      1.000     H          0.117639  
         H61       1.0000    0.10035   0.80017   0.72800   Biso      1.000     H          0.12074   
         H62       1.0000    0.29971   0.82282   0.67972   Biso      1.000     H          0.108066  
         H63       1.0000    0.79242   0.66784   0.85749   Biso      1.000     H          0.109373  
         H64       1.0000    0.40140   0.76728   0.44431   Biso      1.000     H          0.29919   
         H65       1.0000    0.46907   0.74206   0.42637   Biso      1.000     H          0.30681   
         H66       1.0000    0.49285   0.64647   0.44740   Biso      1.000     H          0.120976  
         H67       1.0000    0.34637   0.21423   0.11217   Biso      1.000     H          0.116596  
         H68       1.0000    0.30039   0.60436   0.52117   Biso      1.000     H          0.105268  
         H69       1.0000    0.86938   0.00153   0.54946   Biso      1.000     H          0.288138  
         H70       1.0000    0.89643   0.94302   0.59953   Biso      1.000     H          0.304906  
         H71       1.0000    0.75973   0.74963   0.08291   Biso      1.000     H          0.302141  
         H72       1.0000    0.44996   0.32749   0.98619   Biso      1.000     H          0.113819  
         N1        1.0000    0.37007   0.09616   0.02099   Biso      1.000     N          -0.65515  
         N2        1.0000    0.33443   0.32461   0.78166   Biso      1.000     N          -0.65503  
         N3        1.0000    0.33354   0.32407   0.18820   Biso      1.000     N          -0.654447           
         N4        1.0000    0.13230   0.75163   0.37419   Biso      1.000     N          -0.65634  
         N5        1.0000    0.13338   0.74890   0.59951   Biso      1.000     N          -0.65715  
         N6        1.0000    0.42847   0.73410   0.44260   Biso      1.000     N          -0.657644           
         N7        1.0000    0.75887   0.48503   0.09260   Biso      1.000     N          -0.655476           
         N8        1.0000    0.89563   0.98561   0.59242   Biso      1.000     N          -0.655024           
         N9        1.0000    0.76495   0.49160   0.86825   Biso      1.000     N          -0.65685  
         N10       1.0000    0.88907   0.99244   0.36778   Biso      1.000     N          -0.658421           
         N11       1.0000    0.75031   0.15895   0.37955   Biso      1.000     N          -0.655248           
         N12       1.0000    0.79787   0.76794   0.09248   Biso      1.000     N          -0.65572  
         O1        1.0000    0.63068   0.53057   0.39559   Biso      1.000     O          -0.557348           
         O2        1.0000    0.12562   0.04969   0.98192   Biso      1.000     O          -0.556431           
         O3        1.0000    0.07684   0.93508   0.98484   Biso      1.000     O          -1.069812           
         O4        1.0000    0.47883   0.38594   0.57370   Biso      1.000     O          -0.560558           
         O5        1.0000    0.62976   0.53271   0.57120   Biso      1.000     O          -0.558289           
         O6        1.0000    0.55779   0.37178   0.63537   Biso      1.000     O          -0.553722           
         O7        1.0000    0.64083   0.45388   0.63427   Biso      1.000     O          -0.557312           
         O8        1.0000    0.46344   0.48793   0.48585   Biso      1.000     O          -0.557495           
         O9        1.0000    0.65684   0.34982   0.42049   Biso      1.000     O          -0.559875           
         O10       1.0000    0.01320   0.95450   0.13429   Biso      1.000     O          -0.559379           
         O11       1.0000    0.17409   0.88422   0.07392   Biso      1.000     O          -0.557149           
         O12       1.0000    0.02493   0.03324   0.07127   Biso      1.000     O          -0.556363           
         O13       1.0000    0.55628   0.37071   0.33602   Biso      1.000     O          -0.556147           
         O14       1.0000    0.47768   0.38560   0.39801   Biso      1.000     O          -0.560148           
         O15       1.0000    0.52937   0.55059   0.48195   Biso      1.000     O          -0.559498           
         O16       1.0000    0.57666   0.43530   0.48489   Biso      1.000     O          -1.069251           
         O17       1.0000    0.02394   0.03107   0.89543   Biso      1.000     O          -0.556395           
         O18       1.0000    0.19076   0.98617   0.98568   Biso      1.000     O          -0.559795           
         O19       1.0000    0.65975   0.35304   0.55098   Biso      1.000     O          -0.556385           
         O20       1.0000    0.09604   0.86967   0.83666   Biso      1.000     O          -0.558491           
         O21       1.0000    0.01270   0.95128   0.83487   Biso      1.000     O          -0.557208           
         O22       1.0000    0.99231   0.85438   0.05101   Biso      1.000     O          -0.562296           
         O23       1.0000    0.17514   0.88378   0.89779   Biso      1.000     O          -0.556712           
         O24       1.0000    0.99497   0.85096   0.92058   Biso      1.000     O          -0.557309           
         O25       1.0000    0.09463   0.87094   0.13470   Biso      1.000     O          -0.558063           
         O26       1.0000    0.64116   0.45072   0.33491   Biso      1.000     O          -0.555366           
         Zn1       1.0000    0.15201   0.92221   0.98554   Biso      1.000     Zn          0.996433  
         Zn2       1.0000    0.04520   0.90440   0.07251   Biso      1.000     Zn          0.994305  
         Zn3       1.0000    0.59172   0.50997   0.48341   Biso      1.000     Zn          0.996003  
         Zn4       1.0000    0.50140   0.42353   0.48558   Biso      1.000     Zn          0.995883  
         Zn5       1.0000    0.60685   0.40242   0.39777   Biso      1.000     Zn          0.992548  
         Zn6       1.0000    0.60786   0.40416   0.57269   Biso      1.000     Zn          0.993637  
         Zn7       1.0000    0.04608   0.90252   0.89794   Biso      1.000     Zn          0.99324   
         Zn8       1.0000    0.06268   0.00997   0.98336   Biso      1.000     Zn          0.996716 