
##########################################################################
#               Crystallographic Information Format file
#               Produced by PyCifRW module
#
#  This is a CIF file.  CIF has been adopted by the International
#  Union of Crystallography as the standard for data archiving and
#  transmission.
#
#  For information on this file format, follow the CIF links at
#  http://www.iucr.org
##########################################################################

data_image0

_cell_length_a                          15.3915
_cell_length_b                          15.3915
_cell_length_c                          9.703
_cell_angle_alpha                       95.222
_cell_angle_beta                        95.222
_cell_angle_gamma                       32.5133
_symmetry_space_group_name_H-M          'P 1'
_symmetry_int_tables_number             1
loop_
  _symmetry_equiv_pos_as_xyz
         'x, y, z' 
loop_
  _atom_site_label
  _atom_site_occupancy
  _atom_site_fract_x
  _atom_site_fract_y
  _atom_site_fract_z
  _atom_site_thermal_displace_type
  _atom_site_B_iso_or_equiv
  _atom_site_type_symbol
  _atom_site_charge
         C1        1.0000    0.93120   0.67520   0.39230   Biso      1.000     C          -0.39411  
         C2        1.0000    0.88634   0.36514   0.67670   Biso      1.000     C          -0.104441           
         C3        1.0000    0.96170   0.24230   0.56520   Biso      1.000     C          -0.14088399999999998          
         C4        1.0000    0.95281   0.15681   0.59030   Biso      1.000     C          -0.109453           
         C5        1.0000    0.01641   0.03341   0.49040   Biso      1.000     C          -0.122375           
         C6        1.0000    0.03341   0.01641   0.99040   Biso      1.000     C          -0.122373           
         C7        1.0000    0.15681   0.95281   0.09030   Biso      1.000     C          -0.109452           
         C8        1.0000    0.24230   0.96170   0.06520   Biso      1.000     C          -0.140881           
         C9        1.0000    0.36514   0.88634   0.17670   Biso      1.000     C          -0.10444300000000001          
         C10       1.0000    0.32480   0.06880   0.10770   Biso      1.000     C          -0.39411  
         C11       1.0000    0.55750   0.79030   0.04030   Biso      1.000     C          -0.400615           
         C12       1.0000    0.20970   0.44250   0.45970   Biso      1.000     C          -0.400619           
         C13       1.0000    0.79030   0.55750   0.54030   Biso      1.000     C          -0.400613           
         C14       1.0000    0.11366   0.63486   0.32330   Biso      1.000     C          -0.10444400000000001          
         C15       1.0000    0.06880   0.32480   0.60770   Biso      1.000     C          -0.394106           
         C16       1.0000    0.04719   0.84319   0.40970   Biso      1.000     C          -0.109452           
         C17       1.0000    0.98359   0.96659   0.50960   Biso      1.000     C          -0.122375           
         C18       1.0000    0.96659   0.98359   0.00960   Biso      1.000     C          -0.122375           
         C19       1.0000    0.84319   0.04719   0.90970   Biso      1.000     C          -0.109452           
         C20       1.0000    0.75770   0.03830   0.93480   Biso      1.000     C          -0.14088299999999998          
         C21       1.0000    0.63486   0.11366   0.82330   Biso      1.000     C          -0.104448           
         C22       1.0000    0.67520   0.93120   0.89230   Biso      1.000     C          -0.394111           
         C23       1.0000    0.44250   0.20970   0.95970   Biso      1.000     C          -0.400618           
         C24       1.0000    0.03830   0.75770   0.43480   Biso      1.000     C          -0.14088299999999998          
         H1        1.0000    0.24290   0.10257   0.02432   Biso      1.000     H          0.16453800000000002           
         H2        1.0000    0.60728   0.81501   0.02057   Biso      1.000     H          0.13487000000000002           
         H3        1.0000    0.48285   0.82747   0.94483   Biso      1.000     H          0.193881  
         H4        1.0000    0.05501   0.69684   0.21933   Biso      1.000     H          0.11703   
         H5        1.0000    0.24849   0.53596   0.32049   Biso      1.000     H          0.10838699999999998           
         H6        1.0000    0.60270   0.94087   0.94156   Biso      1.000     H          0.13567200000000001           
         H7        1.0000    0.75710   0.89743   0.97568   Biso      1.000     H          0.164537  
         H8        1.0000    0.84692   0.07303   0.51219   Biso      1.000     H          0.083235  
         H9        1.0000    0.10311   0.69522   0.53807   Biso      1.000     H          0.108947  
         H10       1.0000    0.30478   0.89689   0.96193   Biso      1.000     H          0.10894300000000001           
         H11       1.0000    0.14978   0.09406   0.05736   Biso      1.000     H          0.096944  
         H12       1.0000    0.46404   0.75151   0.17951   Biso      1.000     H          0.10839000000000001           
         H13       1.0000    0.30316   0.94499   0.28067   Biso      1.000     H          0.117031  
         H14       1.0000    0.92697   0.15308   0.98781   Biso      1.000     H          0.083233  
         H15       1.0000    0.08535   0.96490   0.88233   Biso      1.000     H          0.06714500000000001           
         H16       1.0000    0.90594   0.85022   0.44264   Biso      1.000     H          0.096945  
         H17       1.0000    0.81501   0.60728   0.52057   Biso      1.000     H          0.13487000000000002           
         H18       1.0000    0.94087   0.60270   0.44156   Biso      1.000     H          0.135673  
         H19       1.0000    0.89743   0.75710   0.47568   Biso      1.000     H          0.16453900000000002           
         H20       1.0000    0.03510   0.91465   0.61767   Biso      1.000     H          0.067147  
         H21       1.0000    0.25270   0.82037   0.10631   Biso      1.000     H          0.090088  
         H22       1.0000    0.97804   0.91229   0.30952   Biso      1.000     H          0.077075  
         H23       1.0000    0.17963   0.74730   0.39369   Biso      1.000     H          0.090088  
         H24       1.0000    0.82747   0.48285   0.44483   Biso      1.000     H          0.193885  
         H25       1.0000    0.91465   0.03510   0.11767   Biso      1.000     H          0.067147  
         H26       1.0000    0.08771   0.02196   0.19048   Biso      1.000     H          0.077073  
         H27       1.0000    0.91229   0.97804   0.80952   Biso      1.000     H          0.077074  
         H28       1.0000    0.39272   0.18499   0.97943   Biso      1.000     H          0.13486800000000002           
         H29       1.0000    0.94499   0.30316   0.78067   Biso      1.000     H          0.117032  
         H30       1.0000    0.75151   0.46404   0.67951   Biso      1.000     H          0.10838699999999998           
         H31       1.0000    0.09406   0.14978   0.55736   Biso      1.000     H          0.096945  
         H32       1.0000    0.89689   0.30478   0.46193   Biso      1.000     H          0.10895   
         H33       1.0000    0.82037   0.25270   0.60631   Biso      1.000     H          0.090088  
         H34       1.0000    0.02196   0.08771   0.69048   Biso      1.000     H          0.077074  
         H35       1.0000    0.15308   0.92697   0.48781   Biso      1.000     H          0.083234  
         H36       1.0000    0.96490   0.08535   0.38233   Biso      1.000     H          0.067146  
         H37       1.0000    0.10257   0.24290   0.52432   Biso      1.000     H          0.164536  
         H38       1.0000    0.07303   0.84692   0.01219   Biso      1.000     H          0.083233  
         H39       1.0000    0.17253   0.51715   0.55517   Biso      1.000     H          0.193886  
         H40       1.0000    0.18499   0.39272   0.47943   Biso      1.000     H          0.13487000000000002           
         H41       1.0000    0.51715   0.17253   0.05517   Biso      1.000     H          0.193884  
         H42       1.0000    0.39730   0.05913   0.05844   Biso      1.000     H          0.135673  
         H43       1.0000    0.05913   0.39730   0.55844   Biso      1.000     H          0.135673  
         H44       1.0000    0.69522   0.10311   0.03807   Biso      1.000     H          0.108945  
         H45       1.0000    0.74730   0.17963   0.89369   Biso      1.000     H          0.090086  
         H46       1.0000    0.85022   0.90594   0.94264   Biso      1.000     H          0.096944  
         H47       1.0000    0.53596   0.24849   0.82049   Biso      1.000     H          0.10838900000000001           
         H48       1.0000    0.69684   0.05501   0.71933   Biso      1.000     H          0.117031  
         Mg1       1.0000    0.00000   0.50000   0.00000   Biso      1.000     Mg          1.443811  
         Mg2       1.0000    0.50000   0.00000   0.50000   Biso      1.000     Mg          1.443812  
         N1        1.0000    0.44475   0.90375   0.15630   Biso      1.000     N          0.25140999999999997           
         N2        1.0000    0.55525   0.09625   0.84370   Biso      1.000     N          0.25141199999999997           
         N3        1.0000    0.90375   0.44475   0.65630   Biso      1.000     N          0.251408  
         N4        1.0000    0.09625   0.55525   0.34370   Biso      1.000     N          0.25141399999999997           
         O1        1.0000    0.07727   0.26427   0.28050   Biso      1.000     O          -0.52191  
         O2        1.0000    0.14052   0.49872   0.01690   Biso      1.000     O          -0.677796           
         O3        1.0000    0.33266   0.46766   0.00490   Biso      1.000     O          -0.510534           
         O4        1.0000    0.73573   0.92273   0.21950   Biso      1.000     O          -0.521907           
         O5        1.0000    0.62996   0.87236   0.31360   Biso      1.000     O          -0.677928           
         O6        1.0000    0.83960   0.69720   0.13240   Biso      1.000     O          -0.700175           
         O7        1.0000    0.46700   0.23700   0.28910   Biso      1.000     O          -0.468592           
         O8        1.0000    0.46766   0.33266   0.50490   Biso      1.000     O          -0.510534           
         O9        1.0000    0.49872   0.14052   0.51690   Biso      1.000     O          -0.677801           
         O10       1.0000    0.23700   0.46700   0.78910   Biso      1.000     O          -0.46858299999999997          
         O11       1.0000    0.69720   0.83960   0.63240   Biso      1.000     O          -0.7001729999999999           
         O12       1.0000    0.87236   0.62996   0.81360   Biso      1.000     O          -0.677933           
         O13       1.0000    0.92273   0.73573   0.71950   Biso      1.000     O          -0.521922           
         O14       1.0000    0.30280   0.16040   0.36760   Biso      1.000     O          -0.700174           
         O15       1.0000    0.50128   0.85948   0.48310   Biso      1.000     O          -0.6778029999999999           
         O16       1.0000    0.76300   0.53300   0.21090   Biso      1.000     O          -0.46859399999999996          
         O17       1.0000    0.66734   0.53234   0.99510   Biso      1.000     O          -0.510548           
         O18       1.0000    0.26427   0.07727   0.78050   Biso      1.000     O          -0.521911           
         O19       1.0000    0.37004   0.12764   0.68640   Biso      1.000     O          -0.677944           
         O20       1.0000    0.16040   0.30280   0.86760   Biso      1.000     O          -0.700166           
         O21       1.0000    0.53300   0.76300   0.71090   Biso      1.000     O          -0.468567           
         O22       1.0000    0.53234   0.66734   0.49510   Biso      1.000     O          -0.5105529999999999           
         O23       1.0000    0.85948   0.50128   0.98310   Biso      1.000     O          -0.677806           
         O24       1.0000    0.12764   0.37004   0.18640   Biso      1.000     O          -0.6779350000000001           
         P1        1.0000    0.27638   0.42458   0.93890   Biso      1.000     P          1.200631  
         P2        1.0000    0.42458   0.27638   0.43890   Biso      1.000     P          1.200632  
         P3        1.0000    0.19926   0.22726   0.24010   Biso      1.000     P          1.277066  
         P4        1.0000    0.22726   0.19926   0.74010   Biso      1.000     P          1.2770620000000001  
         P5        1.0000    0.57542   0.72362   0.56110   Biso      1.000     P          1.200631  
         P6        1.0000    0.80074   0.77274   0.75990   Biso      1.000     P          1.2770569999999999  
         P7        1.0000    0.77274   0.80074   0.25990   Biso      1.000     P          1.277059  
         P8        1.0000    0.72362   0.57542   0.06110   Biso      1.000     P          1.2006379999999999 