
##########################################################################
#               Crystallographic Information Format file
#               Produced by PyCifRW module
#
#  This is a CIF file.  CIF has been adopted by the International
#  Union of Crystallography as the standard for data archiving and
#  transmission.
#
#  For information on this file format, follow the CIF links at
#  http://www.iucr.org
##########################################################################

data_image0

_cell_length_a                          15.6323
_cell_length_b                          16.1854
_cell_length_c                          14.3253
_cell_angle_alpha                       90
_cell_angle_beta                        103.237
_cell_angle_gamma                       90
_symmetry_space_group_name_H-M          'P 1'
_symmetry_int_tables_number             1
loop_
  _symmetry_equiv_pos_as_xyz
         'x, y, z' 
loop_
  _atom_site_label
  _atom_site_occupancy
  _atom_site_fract_x
  _atom_site_fract_y
  _atom_site_fract_z
  _atom_site_thermal_displace_type
  _atom_site_B_iso_or_equiv
  _atom_site_type_symbol
  _atom_site_charge
         C1        1.0000    0.38960   0.88130   0.84130   Biso      1.000     C          0.598156  
         C2        1.0000    0.04830   0.66410   0.76880   Biso      1.000     C          -0.149107           
         C3        1.0000    0.08960   0.42450   0.77360   Biso      1.000     C          0.030612  
         C4        1.0000    0.08950   0.58240   0.77390   Biso      1.000     C          0.0304    
         C5        1.0000    0.18150   0.42560   0.79760   Biso      1.000     C          0.017447  
         C6        1.0000    0.18140   0.58130   0.79690   Biso      1.000     C          0.018101  
         C7        1.0000    0.28780   0.21440   0.88810   Biso      1.000     C          -0.082189           
         C8        1.0000    0.27880   0.79530   0.88640   Biso      1.000     C          -0.085024           
         C9        1.0000    0.23670   0.28760   0.87880   Biso      1.000     C          -0.141981           
         C10       1.0000    0.04840   0.34300   0.76940   Biso      1.000     C          -0.148464           
         C11       1.0000    0.23070   0.72060   0.87720   Biso      1.000     C          -0.145951           
         C12       1.0000    0.23130   0.66560   0.80550   Biso      1.000     C          0.087475  
         C13       1.0000    0.26920   0.31180   0.73330   Biso      1.000     C          -0.13681600000000002          
         C14       1.0000    0.26950   0.69550   0.73520   Biso      1.000     C          -0.14324  
         C15       1.0000    0.30870   0.23270   0.73800   Biso      1.000     C          -0.074904           
         C16       1.0000    0.30590   0.77570   0.73970   Biso      1.000     C          -0.06400299999999999          
         C17       1.0000    0.32410   0.18890   0.81830   Biso      1.000     C          -0.043436           
         C18       1.0000    0.31940   0.81950   0.81980   Biso      1.000     C          -0.030685000000000004         
         C19       1.0000    0.38970   0.12250   0.83480   Biso      1.000     C          0.633632  
         C20       1.0000    0.23180   0.34110   0.80460   Biso      1.000     C          0.085247  
         C21       1.0000    0.22970   0.50350   0.81800   Biso      1.000     C          -0.205631           
         C22       1.0000    0.04450   0.50340   0.76570   Biso      1.000     C          0.020347  
         C23       1.0000    0.04450   0.49660   0.26570   Biso      1.000     C          0.020346  
         C24       1.0000    0.23070   0.27940   0.37720   Biso      1.000     C          -0.145956           
         C25       1.0000    0.23180   0.65890   0.30460   Biso      1.000     C          0.085235  
         C26       1.0000    0.23130   0.33440   0.30550   Biso      1.000     C          0.087475  
         C27       1.0000    0.26920   0.68820   0.23330   Biso      1.000     C          -0.136809           
         C28       1.0000    0.26950   0.30450   0.23520   Biso      1.000     C          -0.14324  
         C29       1.0000    0.30870   0.76730   0.23800   Biso      1.000     C          -0.0749   
         C30       1.0000    0.30590   0.22430   0.23970   Biso      1.000     C          -0.063999           
         C31       1.0000    0.32410   0.81110   0.31830   Biso      1.000     C          -0.043481           
         C32       1.0000    0.31940   0.18050   0.31980   Biso      1.000     C          -0.030723           
         C33       1.0000    0.38970   0.87750   0.33480   Biso      1.000     C          0.633636  
         C34       1.0000    0.38960   0.11870   0.34130   Biso      1.000     C          0.598159  
         C35       1.0000    0.28780   0.78560   0.38810   Biso      1.000     C          -0.08214500000000001          
         C36       1.0000    0.18140   0.41870   0.29690   Biso      1.000     C          0.018101  
         C37       1.0000    0.18150   0.57440   0.29760   Biso      1.000     C          0.017447999999999998          
         C38       1.0000    0.08950   0.41760   0.27390   Biso      1.000     C          0.0304    
         C39       1.0000    0.08960   0.57550   0.27360   Biso      1.000     C          0.030612  
         C40       1.0000    0.04830   0.33590   0.26880   Biso      1.000     C          -0.149107           
         C41       1.0000    0.04840   0.65700   0.26940   Biso      1.000     C          -0.148464           
         C42       1.0000    0.22970   0.49650   0.31800   Biso      1.000     C          -0.205631           
         C43       1.0000    0.23670   0.71240   0.37880   Biso      1.000     C          -0.141978           
         C44       1.0000    0.61040   0.11870   0.15870   Biso      1.000     C          0.598163  
         C45       1.0000    0.27880   0.20470   0.38640   Biso      1.000     C          -0.084986           
         C46       1.0000    0.68060   0.18050   0.18020   Biso      1.000     C          -0.030763           
         C47       1.0000    0.72120   0.79530   0.61360   Biso      1.000     C          -0.085024           
         C48       1.0000    0.76330   0.28760   0.62120   Biso      1.000     C          -0.141981           
         C49       1.0000    0.76930   0.72060   0.62280   Biso      1.000     C          -0.145951           
         C50       1.0000    0.95170   0.33590   0.23120   Biso      1.000     C          -0.149106           
         C51       1.0000    0.61030   0.87750   0.16520   Biso      1.000     C          0.6336350000000001  
         C52       1.0000    0.91040   0.57550   0.22640   Biso      1.000     C          0.030610000000000002          
         C53       1.0000    0.91050   0.41760   0.22610   Biso      1.000     C          0.030398  
         C54       1.0000    0.81850   0.57440   0.20240   Biso      1.000     C          0.017447999999999998          
         C55       1.0000    0.71220   0.21440   0.61190   Biso      1.000     C          -0.082189           
         C56       1.0000    0.81860   0.41870   0.20310   Biso      1.000     C          0.018102  
         C57       1.0000    0.61040   0.88130   0.65870   Biso      1.000     C          0.598156  
         C58       1.0000    0.76820   0.34110   0.69540   Biso      1.000     C          0.085242  
         C59       1.0000    0.76870   0.66560   0.69450   Biso      1.000     C          0.087475  
         C60       1.0000    0.73080   0.31180   0.76670   Biso      1.000     C          -0.136809           
         C61       1.0000    0.73050   0.69550   0.76480   Biso      1.000     C          -0.14324  
         C62       1.0000    0.69130   0.23270   0.76200   Biso      1.000     C          -0.074905           
         C63       1.0000    0.69410   0.77570   0.76030   Biso      1.000     C          -0.06400299999999999          
         C64       1.0000    0.67590   0.18890   0.68170   Biso      1.000     C          -0.043436           
         C65       1.0000    0.71220   0.78560   0.11190   Biso      1.000     C          -0.08218500000000001          
         C66       1.0000    0.81860   0.58130   0.70310   Biso      1.000     C          0.018101  
         C67       1.0000    0.81850   0.42560   0.70240   Biso      1.000     C          0.017447999999999998          
         C68       1.0000    0.91050   0.58240   0.72610   Biso      1.000     C          0.030398  
         C69       1.0000    0.95550   0.49660   0.23430   Biso      1.000     C          0.020365  
         C70       1.0000    0.77030   0.49650   0.18200   Biso      1.000     C          -0.205631           
         C71       1.0000    0.95160   0.65700   0.23060   Biso      1.000     C          -0.148463           
         C72       1.0000    0.67590   0.81110   0.18170   Biso      1.000     C          -0.043472000000000004         
         C73       1.0000    0.69410   0.22430   0.26030   Biso      1.000     C          -0.063959           
         C74       1.0000    0.69130   0.76730   0.26200   Biso      1.000     C          -0.07486799999999999          
         C75       1.0000    0.73050   0.30450   0.26480   Biso      1.000     C          -0.143251           
         C76       1.0000    0.73080   0.68820   0.26670   Biso      1.000     C          -0.13682  
         C77       1.0000    0.68060   0.81950   0.68020   Biso      1.000     C          -0.030685000000000004         
         C78       1.0000    0.76870   0.33440   0.19450   Biso      1.000     C          0.087473  
         C79       1.0000    0.76930   0.27940   0.12280   Biso      1.000     C          -0.145946           
         C80       1.0000    0.76330   0.71240   0.12120   Biso      1.000     C          -0.141982           
         C81       1.0000    0.72120   0.20470   0.11360   Biso      1.000     C          -0.084983           
         C82       1.0000    0.95550   0.50340   0.73430   Biso      1.000     C          0.020365  
         C83       1.0000    0.77030   0.50350   0.68200   Biso      1.000     C          -0.205631           
         C84       1.0000    0.95160   0.34300   0.73060   Biso      1.000     C          -0.148463           
         C85       1.0000    0.95170   0.66410   0.73120   Biso      1.000     C          -0.149106           
         C86       1.0000    0.91040   0.42450   0.72640   Biso      1.000     C          0.030610000000000002          
         C87       1.0000    0.76820   0.65890   0.19540   Biso      1.000     C          0.085248  
         C88       1.0000    0.61030   0.12250   0.66520   Biso      1.000     C          0.633632  
         H1        1.0000    0.38123   0.00140   0.61300   Biso      1.000     H          0.392417  
         H2        1.0000    0.80820   0.29350   0.07070   Biso      1.000     H          0.09715599999999999           
         H3        1.0000    0.69970   0.49650   0.15160   Biso      1.000     H          0.127816  
         H4        1.0000    0.91090   0.28060   0.21740   Biso      1.000     H          0.122682  
         H5        1.0000    0.91090   0.71220   0.21530   Biso      1.000     H          0.122204  
         H6        1.0000    0.67680   0.19820   0.32370   Biso      1.000     H          0.102941  
         H7        1.0000    0.72810   0.34380   0.32590   Biso      1.000     H          0.098812  
         H8        1.0000    0.71740   0.16630   0.05020   Biso      1.000     H          0.095578  
         H9        1.0000    0.67340   0.79250   0.32540   Biso      1.000     H          0.102215  
         H10       1.0000    0.73140   0.64920   0.32900   Biso      1.000     H          0.097481  
         H11       1.0000    0.80000   0.69860   0.06700   Biso      1.000     H          0.09698999999999999           
         H12       1.0000    0.70250   0.82150   0.04590   Biso      1.000     H          0.100136  
         H13       1.0000    0.61877   0.00140   0.88700   Biso      1.000     H          0.392417  
         H14       1.0000    0.69970   0.50350   0.65160   Biso      1.000     H          0.127816  
         H15       1.0000    0.08910   0.28060   0.28260   Biso      1.000     H          0.12268299999999999           
         H16       1.0000    0.20000   0.69860   0.43300   Biso      1.000     H          0.09698999999999999           
         H17       1.0000    0.32660   0.20750   0.67460   Biso      1.000     H          0.10221799999999999           
         H18       1.0000    0.28260   0.83370   0.94980   Biso      1.000     H          0.095581  
         H19       1.0000    0.19180   0.70650   0.92930   Biso      1.000     H          0.09715700000000001           
         H20       1.0000    0.27190   0.65620   0.67410   Biso      1.000     H          0.098811  
         H21       1.0000    0.29750   0.82150   0.45410   Biso      1.000     H          0.100133  
         H22       1.0000    0.08910   0.28780   0.78470   Biso      1.000     H          0.122204  
         H23       1.0000    0.08910   0.71940   0.78260   Biso      1.000     H          0.12268299999999999           
         H24       1.0000    0.30030   0.50350   0.84840   Biso      1.000     H          0.127816  
         H25       1.0000    0.38123   0.99860   0.11300   Biso      1.000     H          0.392417  
         H26       1.0000    0.70250   0.17850   0.54590   Biso      1.000     H          0.100136  
         H27       1.0000    0.80000   0.30140   0.56700   Biso      1.000     H          0.09698999999999999           
         H28       1.0000    0.73140   0.35080   0.82900   Biso      1.000     H          0.09748   
         H29       1.0000    0.67340   0.20750   0.82540   Biso      1.000     H          0.10221799999999999           
         H30       1.0000    0.71740   0.83370   0.55020   Biso      1.000     H          0.095581  
         H31       1.0000    0.80820   0.70650   0.57070   Biso      1.000     H          0.09715700000000001           
         H32       1.0000    0.72810   0.65620   0.82590   Biso      1.000     H          0.098811  
         H33       1.0000    0.67680   0.80180   0.82370   Biso      1.000     H          0.10294400000000001           
         H34       1.0000    0.91090   0.28780   0.71530   Biso      1.000     H          0.122204  
         H35       1.0000    0.91090   0.71940   0.71740   Biso      1.000     H          0.122682  
         H36       1.0000    0.26860   0.35080   0.67100   Biso      1.000     H          0.097481  
         H37       1.0000    0.20000   0.30140   0.93300   Biso      1.000     H          0.096991  
         H38       1.0000    0.32320   0.80180   0.67630   Biso      1.000     H          0.10294400000000001           
         H39       1.0000    0.08910   0.71220   0.28470   Biso      1.000     H          0.122204  
         H40       1.0000    0.29750   0.17850   0.95410   Biso      1.000     H          0.100136  
         H41       1.0000    0.27190   0.34380   0.17410   Biso      1.000     H          0.098811  
         H42       1.0000    0.26860   0.64920   0.17100   Biso      1.000     H          0.09748   
         H43       1.0000    0.19180   0.29350   0.42930   Biso      1.000     H          0.09715700000000001           
         H44       1.0000    0.61877   0.99860   0.38700   Biso      1.000     H          0.392417  
         H45       1.0000    0.30030   0.49650   0.34840   Biso      1.000     H          0.127816  
         H46       1.0000    0.28260   0.16630   0.44980   Biso      1.000     H          0.095578  
         H47       1.0000    0.32660   0.79250   0.17460   Biso      1.000     H          0.10221799999999999           
         H48       1.0000    0.32320   0.19820   0.17630   Biso      1.000     H          0.10294400000000001           
         In1       1.0000    0.50000   0.99180   0.25000   Biso      1.000     In          1.575716  
         In2       1.0000    0.50000   0.00820   0.75000   Biso      1.000     In          1.575716  
         In3       1.0000    0.50000   0.00000   0.50000   Biso      1.000     In          1.660162  
         In4       1.0000    0.50000   0.00000   0.00000   Biso      1.000     In          1.660162  
         O1        1.0000    0.55480   0.00140   0.88700   Biso      1.000     O          -0.908532           
         O2        1.0000    0.57370   0.10050   0.23160   Biso      1.000     O          -0.602418           
         O3        1.0000    0.57810   0.90130   0.07770   Biso      1.000     O          -0.619334           
         O4        1.0000    0.57870   0.09960   0.07440   Biso      1.000     O          -0.560349           
         O5        1.0000    0.58270   0.89480   0.23580   Biso      1.000     O          -0.553739           
         O6        1.0000    0.44520   0.99860   0.11300   Biso      1.000     O          -0.908532           
         O7        1.0000    0.41730   0.89480   0.26420   Biso      1.000     O          -0.5537380000000001           
         O8        1.0000    0.55480   0.99860   0.38700   Biso      1.000     O          -0.908532           
         O9        1.0000    0.57870   0.90040   0.57440   Biso      1.000     O          -0.560349           
         O10       1.0000    0.58270   0.10520   0.73580   Biso      1.000     O          -0.553739           
         O11       1.0000    0.57370   0.89950   0.73160   Biso      1.000     O          -0.602418           
         O12       1.0000    0.57810   0.09870   0.57770   Biso      1.000     O          -0.619334           
         O13       1.0000    0.42630   0.10050   0.26840   Biso      1.000     O          -0.602418           
         O14       1.0000    0.42190   0.90130   0.42230   Biso      1.000     O          -0.6193350000000001           
         O15       1.0000    0.42190   0.09870   0.92230   Biso      1.000     O          -0.619334           
         O16       1.0000    0.42630   0.89950   0.76840   Biso      1.000     O          -0.602418           
         O17       1.0000    0.41730   0.10520   0.76420   Biso      1.000     O          -0.553739           
         O18       1.0000    0.42130   0.90040   0.92560   Biso      1.000     O          -0.560349           
         O19       1.0000    0.44520   0.00140   0.61300   Biso      1.000     O          -0.908532           
         O20       1.0000    0.42130   0.09960   0.42560   Biso      1.000     O          -0.560349 