
##########################################################################
#               Crystallographic Information Format file
#               Produced by PyCifRW module
#
#  This is a CIF file.  CIF has been adopted by the International
#  Union of Crystallography as the standard for data archiving and
#  transmission.
#
#  For information on this file format, follow the CIF links at
#  http://www.iucr.org
##########################################################################

data_image0

_cell_length_a                          7.1622
_cell_length_b                          9.094
_cell_length_c                          9.749
_cell_angle_alpha                       105.663
_cell_angle_beta                        103.181
_cell_angle_gamma                       98.248
_symmetry_space_group_name_H-M          'P 1'
_symmetry_int_tables_number             1
loop_
  _symmetry_equiv_pos_as_xyz
         'x, y, z' 
loop_
  _atom_site_label
  _atom_site_occupancy
  _atom_site_fract_x
  _atom_site_fract_y
  _atom_site_fract_z
  _atom_site_thermal_displace_type
  _atom_site_B_iso_or_equiv
  _atom_site_type_symbol
  _atom_site_charge
         C1        1.0000    0.84180   0.37700   0.38240   Biso      1.000     C          -0.129046           
         C2        1.0000    0.70880   0.03130   0.58130   Biso      1.000     C          -0.201963           
         C3        1.0000    0.04980   0.35260   0.43310   Biso      1.000     C          -0.191951           
         C4        1.0000    0.20250   0.50400   0.49180   Biso      1.000     C          -0.194458           
         C5        1.0000    0.80100   0.41970   0.24040   Biso      1.000     C          0.651767  
         C6        1.0000    0.64630   0.23150   0.79270   Biso      1.000     C          0.655449  
         C7        1.0000    0.55920   0.08680   0.66050   Biso      1.000     C          -0.115326           
         C8        1.0000    0.29120   0.96870   0.41870   Biso      1.000     C          -0.201963           
         C9        1.0000    0.38840   0.11470   0.55270   Biso      1.000     C          -0.19894  
         C10       1.0000    0.15820   0.62300   0.61760   Biso      1.000     C          -0.129045           
         C11       1.0000    0.79750   0.49600   0.50820   Biso      1.000     C          -0.194457           
         C12       1.0000    0.19900   0.58030   0.75960   Biso      1.000     C          0.651767  
         C13       1.0000    0.35370   0.76850   0.20730   Biso      1.000     C          0.655449  
         C14       1.0000    0.44080   0.91320   0.33950   Biso      1.000     C          -0.115326           
         C15       1.0000    0.61160   0.88530   0.44730   Biso      1.000     C          -0.19894  
         C16       1.0000    0.95020   0.64740   0.56690   Biso      1.000     C          -0.191951           
         H1        1.0000    0.24100   0.72300   0.65400   Biso      1.000     H          0.098798  
         H2        1.0000    0.76640   0.72880   0.01426   Biso      1.000     H          0.407856  
         H3        1.0000    0.56440   0.79990   0.48120   Biso      1.000     H          0.111777  
         H4        1.0000    0.23360   0.27120   0.98574   Biso      1.000     H          0.407855  
         H5        1.0000    0.66930   0.51690   0.47230   Biso      1.000     H          0.103779  
         H6        1.0000    0.50800   0.01300   0.70900   Biso      1.000     H          0.096469  
         H7        1.0000    0.76710   0.11410   0.54870   Biso      1.000     H          0.110838  
         H8        1.0000    0.70840   0.85490   0.39630   Biso      1.000     H          0.110703  
         H9        1.0000    0.07920   0.28250   0.35030   Biso      1.000     H          0.108411  
         H10       1.0000    0.05650   0.30320   0.51020   Biso      1.000     H          0.100002  
         H11       1.0000    0.20650   0.54770   0.41180   Biso      1.000     H          0.107949  
         H12       1.0000    0.33070   0.48310   0.52770   Biso      1.000     H          0.103779  
         H13       1.0000    0.29160   0.14510   0.60370   Biso      1.000     H          0.110703  
         H14       1.0000    0.81290   0.00790   0.64960   Biso      1.000     H          0.10866600000000001           
         H15       1.0000    0.75900   0.27700   0.34600   Biso      1.000     H          0.098798  
         H16       1.0000    0.49200   0.98700   0.29100   Biso      1.000     H          0.096469  
         H17       1.0000    0.23290   0.88590   0.45130   Biso      1.000     H          0.110838  
         H18       1.0000    0.18710   0.99210   0.35040   Biso      1.000     H          0.10866500000000001           
         H19       1.0000    0.92080   0.71750   0.64970   Biso      1.000     H          0.10840999999999999           
         H20       1.0000    0.94350   0.69680   0.48980   Biso      1.000     H          0.100002  
         H21       1.0000    0.79350   0.45230   0.58820   Biso      1.000     H          0.107948  
         H22       1.0000    0.43560   0.20010   0.51880   Biso      1.000     H          0.111777  
         In1       1.0000    0.00000   0.50000   0.00000   Biso      1.000     In          1.588106  
         In2       1.0000    0.50000   0.50000   0.00000   Biso      1.000     In          1.542055  
         O1        1.0000    0.64360   0.46440   0.20360   Biso      1.000     O          -0.59275  
         O2        1.0000    0.82130   0.29880   0.81880   Biso      1.000     O          -0.57743  
         O3        1.0000    0.92210   0.40410   0.16440   Biso      1.000     O          -0.602789           
         O4        1.0000    0.23360   0.38540   0.01450   Biso      1.000     O          -0.90399  
         O5        1.0000    0.46730   0.72380   0.13010   Biso      1.000     O          -0.628901           
         O6        1.0000    0.35640   0.53560   0.79640   Biso      1.000     O          -0.59275  
         O7        1.0000    0.17870   0.70120   0.18120   Biso      1.000     O          -0.57743  
         O8        1.0000    0.07790   0.59590   0.83560   Biso      1.000     O          -0.6027899999999999           
         O9        1.0000    0.76640   0.61460   0.98550   Biso      1.000     O          -0.903991           
         O10       1.0000    0.53270   0.27620   0.86990   Biso      1.000     O          -0.628901 