
##########################################################################
#               Crystallographic Information Format file
#               Produced by PyCifRW module
#
#  This is a CIF file.  CIF has been adopted by the International
#  Union of Crystallography as the standard for data archiving and
#  transmission.
#
#  For information on this file format, follow the CIF links at
#  http://www.iucr.org
##########################################################################

data_image0

_cell_length_a                          11.036
_cell_length_b                          12.056
_cell_length_c                          19.561
_cell_angle_alpha                       90
_cell_angle_beta                        90
_cell_angle_gamma                       90
_symmetry_space_group_name_H-M          'P 1'
_symmetry_int_tables_number             1
loop_
  _symmetry_equiv_pos_as_xyz
         'x, y, z' 
loop_
  _atom_site_label
  _atom_site_occupancy
  _atom_site_fract_x
  _atom_site_fract_y
  _atom_site_fract_z
  _atom_site_thermal_displace_type
  _atom_site_B_iso_or_equiv
  _atom_site_type_symbol
  _atom_site_charge
         C1        1.0000    0.55440   0.67280   0.07600   Biso      1.000     C          0.5537270000000001  
         C2        1.0000    0.60170   0.97190   0.76900   Biso      1.000     C          0.292903  
         C3        1.0000    0.62530   0.15280   0.73980   Biso      1.000     C          0.16321300000000002           
         C4        1.0000    0.52010   0.18030   0.77480   Biso      1.000     C          -0.17148  
         C5        1.0000    0.45820   0.09450   0.80420   Biso      1.000     C          0.181419  
         C6        1.0000    0.34000   0.11360   0.84250   Biso      1.000     C          0.588708  
         C7        1.0000    0.70300   0.24270   0.70550   Biso      1.000     C          0.6071340000000001  
         C8        1.0000    0.82150   0.11590   0.51020   Biso      1.000     C          0.5047159999999999  
         C9        1.0000    0.70020   0.06340   0.53280   Biso      1.000     C          0.540686  
         C10       1.0000    0.82590   0.06480   0.23850   Biso      1.000     C          0.25227   
         C11       1.0000    0.86270   0.15250   0.13680   Biso      1.000     C          0.18670799999999999           
         C12       1.0000    0.75730   0.21450   0.14490   Biso      1.000     C          -0.168754           
         C13       1.0000    0.05440   0.82720   0.57600   Biso      1.000     C          0.5537270000000001  
         C14       1.0000    0.69290   0.19900   0.20460   Biso      1.000     C          0.16673   
         C15       1.0000    0.94560   0.17280   0.07600   Biso      1.000     C          0.553726  
         C16       1.0000    0.39830   0.02810   0.26900   Biso      1.000     C          0.292903  
         C17       1.0000    0.37470   0.84720   0.23980   Biso      1.000     C          0.16321300000000002           
         C18       1.0000    0.47990   0.81970   0.27480   Biso      1.000     C          -0.17148  
         C19       1.0000    0.54180   0.90550   0.30420   Biso      1.000     C          0.181419  
         C20       1.0000    0.66000   0.88640   0.34250   Biso      1.000     C          0.588707  
         C21       1.0000    0.29700   0.75730   0.20550   Biso      1.000     C          0.6071340000000001  
         C22       1.0000    0.17850   0.88410   0.01020   Biso      1.000     C          0.5047159999999999  
         C23       1.0000    0.29980   0.93660   0.03280   Biso      1.000     C          0.540686  
         C24       1.0000    0.32590   0.43520   0.73850   Biso      1.000     C          0.25227   
         C25       1.0000    0.36270   0.34750   0.63680   Biso      1.000     C          0.18670799999999999           
         C26       1.0000    0.58550   0.27410   0.22240   Biso      1.000     C          0.601661  
         C27       1.0000    0.41450   0.72590   0.72240   Biso      1.000     C          0.601661  
         C28       1.0000    0.30710   0.80100   0.70460   Biso      1.000     C          0.16672599999999999           
         C29       1.0000    0.24270   0.78550   0.64490   Biso      1.000     C          -0.168751           
         C30       1.0000    0.20020   0.43660   0.03280   Biso      1.000     C          0.540687  
         C31       1.0000    0.32150   0.38410   0.01020   Biso      1.000     C          0.5047159999999999  
         C32       1.0000    0.20300   0.25730   0.20550   Biso      1.000     C          0.6071340000000001  
         C33       1.0000    0.84000   0.38640   0.34250   Biso      1.000     C          0.588708  
         C34       1.0000    0.95820   0.40550   0.30420   Biso      1.000     C          0.18141400000000002           
         C35       1.0000    0.02010   0.31970   0.27480   Biso      1.000     C          -0.171474           
         C36       1.0000    0.12530   0.34720   0.23980   Biso      1.000     C          0.163212  
         C37       1.0000    0.10170   0.52810   0.26900   Biso      1.000     C          0.292903  
         C38       1.0000    0.91450   0.77410   0.22240   Biso      1.000     C          0.601661  
         C39       1.0000    0.80710   0.69900   0.20460   Biso      1.000     C          0.16672599999999999           
         C40       1.0000    0.74270   0.71450   0.14490   Biso      1.000     C          -0.168751           
         C41       1.0000    0.63730   0.65250   0.13680   Biso      1.000     C          0.18670899999999999           
         C42       1.0000    0.67410   0.56480   0.23850   Biso      1.000     C          0.25227   
         C43       1.0000    0.79980   0.56340   0.53280   Biso      1.000     C          0.540687  
         C44       1.0000    0.67850   0.61590   0.51020   Biso      1.000     C          0.5047159999999999  
         C45       1.0000    0.79700   0.74270   0.70550   Biso      1.000     C          0.6071350000000001  
         C46       1.0000    0.16000   0.61360   0.84250   Biso      1.000     C          0.588708  
         C47       1.0000    0.04180   0.59450   0.80420   Biso      1.000     C          0.18141400000000002           
         C48       1.0000    0.97990   0.68030   0.77480   Biso      1.000     C          -0.171474           
         C49       1.0000    0.87470   0.65280   0.73980   Biso      1.000     C          0.163212  
         C50       1.0000    0.89830   0.47190   0.76900   Biso      1.000     C          0.292903  
         C51       1.0000    0.44560   0.32720   0.57600   Biso      1.000     C          0.553726  
         C52       1.0000    0.08550   0.22590   0.72240   Biso      1.000     C          0.601661  
         C53       1.0000    0.17410   0.93520   0.73850   Biso      1.000     C          0.25227   
         C54       1.0000    0.13730   0.84750   0.63680   Biso      1.000     C          0.18670899999999999           
         C55       1.0000    0.25730   0.28550   0.64490   Biso      1.000     C          -0.168753           
         C56       1.0000    0.19290   0.30100   0.70460   Biso      1.000     C          0.16673   
         Ce1       1.0000    0.36431   0.84017   0.87879   Biso      1.000     Ce          1.9845279999999998  
         Ce2       1.0000    0.88269   0.02071   0.66444   Biso      1.000     Ce          1.9216650000000002  
         Ce3       1.0000    0.63569   0.15983   0.37879   Biso      1.000     Ce          1.984529  
         Ce4       1.0000    0.11731   0.97929   0.16444   Biso      1.000     Ce          1.9216650000000002  
         Ce5       1.0000    0.13569   0.34017   0.87879   Biso      1.000     Ce          1.984529  
         Ce6       1.0000    0.61731   0.52071   0.66444   Biso      1.000     Ce          1.921666  
         Ce7       1.0000    0.86431   0.65983   0.37879   Biso      1.000     Ce          1.984529  
         Ce8       1.0000    0.38269   0.47929   0.16444   Biso      1.000     Ce          1.921666  
         H1        1.0000    0.13010   0.60070   0.26770   Biso      1.000     H          0.084762  
         H2        1.0000    0.99310   0.24680   0.27800   Biso      1.000     H          0.15553   
         H3        1.0000    0.26860   0.73580   0.61160   Biso      1.000     H          0.17133299999999999           
         H4        1.0000    0.63010   0.89930   0.76770   Biso      1.000     H          0.084762  
         H5        1.0000    0.15340   0.98990   0.76990   Biso      1.000     H          0.082486  
         H6        1.0000    0.84660   0.01010   0.26990   Biso      1.000     H          0.082486  
         H7        1.0000    0.76860   0.76420   0.11160   Biso      1.000     H          0.17133299999999999           
         H8        1.0000    0.49310   0.25320   0.77800   Biso      1.000     H          0.15553   
         H9        1.0000    0.00690   0.75320   0.77800   Biso      1.000     H          0.15553   
         H10       1.0000    0.86990   0.39930   0.76770   Biso      1.000     H          0.084762  
         H11       1.0000    0.23140   0.23580   0.61160   Biso      1.000     H          0.17133299999999999           
         H12       1.0000    0.65340   0.51010   0.26990   Biso      1.000     H          0.082486  
         H13       1.0000    0.50690   0.74680   0.27800   Biso      1.000     H          0.15553   
         H14       1.0000    0.36990   0.10070   0.26770   Biso      1.000     H          0.084762  
         H15       1.0000    0.73140   0.26420   0.11160   Biso      1.000     H          0.17133299999999999           
         H16       1.0000    0.34660   0.48990   0.76990   Biso      1.000     H          0.082486  
         N1        1.0000    0.39830   0.42200   0.68370   Biso      1.000     N          -0.36933  
         N2        1.0000    0.16600   0.45270   0.23600   Biso      1.000     N          -0.342357           
         N3        1.0000    0.99950   0.50950   0.30410   Biso      1.000     N          -0.388735           
         N4        1.0000    0.60170   0.57800   0.18370   Biso      1.000     N          -0.36933  
         N5        1.0000    0.77420   0.62480   0.25100   Biso      1.000     N          -0.368332           
         N6        1.0000    0.83400   0.54730   0.73600   Biso      1.000     N          -0.342357           
         N7        1.0000    0.00050   0.49050   0.80410   Biso      1.000     N          -0.388735           
         N8        1.0000    0.22580   0.37520   0.75100   Biso      1.000     N          -0.368332           
         N9        1.0000    0.33400   0.95270   0.23600   Biso      1.000     N          -0.342358           
         N10       1.0000    0.50050   0.00950   0.30410   Biso      1.000     N          -0.388735           
         N11       1.0000    0.89830   0.07800   0.18370   Biso      1.000     N          -0.36933  
         N12       1.0000    0.72580   0.12480   0.25100   Biso      1.000     N          -0.368332           
         N13       1.0000    0.66600   0.04730   0.73600   Biso      1.000     N          -0.342357           
         N14       1.0000    0.49950   0.99050   0.80410   Biso      1.000     N          -0.388735           
         N15       1.0000    0.10170   0.92200   0.68370   Biso      1.000     N          -0.36933  
         N16       1.0000    0.27420   0.87520   0.75100   Biso      1.000     N          -0.368332           
         O1        1.0000    0.67430   0.65150   0.44910   Biso      1.000     O          -0.610698           
         O2        1.0000    0.83410   0.83910   0.70890   Biso      1.000     O          -0.6425649999999999           
         O3        1.0000    0.70090   0.71180   0.67710   Biso      1.000     O          -0.5852189999999999           
         O4        1.0000    0.20410   0.71030   0.83620   Biso      1.000     O          -0.607668           
         O5        1.0000    0.54050   0.38880   0.57360   Biso      1.000     O          -0.655415           
         O6        1.0000    0.41400   0.25830   0.53530   Biso      1.000     O          -0.538403           
         O7        1.0000    0.59260   0.61770   0.55220   Biso      1.000     O          -0.536565           
         O8        1.0000    0.05060   0.15980   0.67740   Biso      1.000     O          -0.5728810000000001           
         O9        1.0000    0.20880   0.53370   0.87330   Biso      1.000     O          -0.598565           
         O10       1.0000    0.88920   0.57780   0.49530   Biso      1.000     O          -0.610346           
         O11       1.0000    0.45950   0.61120   0.07360   Biso      1.000     O          -0.655415           
         O12       1.0000    0.95570   0.76380   0.28160   Biso      1.000     O          -0.684037           
         O13       1.0000    0.94940   0.84020   0.17740   Biso      1.000     O          -0.5728810000000001           
         O14       1.0000    0.04430   0.23620   0.78160   Biso      1.000     O          -0.684037           
         O15       1.0000    0.58600   0.74170   0.03530   Biso      1.000     O          -0.538403           
         O16       1.0000    0.79120   0.46630   0.37330   Biso      1.000     O          -0.598565           
         O17       1.0000    0.40740   0.38230   0.05220   Biso      1.000     O          -0.536565           
         O18       1.0000    0.79590   0.28970   0.33620   Biso      1.000     O          -0.607668           
         O19       1.0000    0.29910   0.28820   0.17710   Biso      1.000     O          -0.5852189999999999           
         O20       1.0000    0.16590   0.16090   0.20890   Biso      1.000     O          -0.642566           
         O21       1.0000    0.32570   0.34850   0.94910   Biso      1.000     O          -0.610698           
         O22       1.0000    0.79510   0.50930   0.58780   Biso      1.000     O          -0.58883  
         O23       1.0000    0.29510   0.99070   0.08780   Biso      1.000     O          -0.58883  
         O24       1.0000    0.29120   0.03370   0.87330   Biso      1.000     O          -0.598565           
         O25       1.0000    0.09260   0.88230   0.05220   Biso      1.000     O          -0.536565           
         O26       1.0000    0.11080   0.42220   0.99530   Biso      1.000     O          -0.610346           
         O27       1.0000    0.45570   0.73620   0.78160   Biso      1.000     O          -0.684037           
         O28       1.0000    0.44940   0.65980   0.67740   Biso      1.000     O          -0.5728810000000001           
         O29       1.0000    0.95950   0.88880   0.57360   Biso      1.000     O          -0.655415           
         O30       1.0000    0.08600   0.75830   0.53530   Biso      1.000     O          -0.538403           
         O31       1.0000    0.29590   0.21030   0.83620   Biso      1.000     O          -0.607668           
         O32       1.0000    0.79910   0.21180   0.67710   Biso      1.000     O          -0.5852189999999999           
         O33       1.0000    0.66590   0.33910   0.70890   Biso      1.000     O          -0.6425649999999999           
         O34       1.0000    0.82570   0.15150   0.44910   Biso      1.000     O          -0.610698           
         O35       1.0000    0.90740   0.11770   0.55220   Biso      1.000     O          -0.536565           
         O36       1.0000    0.61080   0.07780   0.49530   Biso      1.000     O          -0.610345           
         O37       1.0000    0.70490   0.00930   0.58780   Biso      1.000     O          -0.58883  
         O38       1.0000    0.54430   0.26380   0.28160   Biso      1.000     O          -0.684037           
         O39       1.0000    0.55060   0.34020   0.17740   Biso      1.000     O          -0.5728810000000001           
         O40       1.0000    0.04050   0.11120   0.07360   Biso      1.000     O          -0.655415           
         O41       1.0000    0.91400   0.24170   0.03530   Biso      1.000     O          -0.538403           
         O42       1.0000    0.70880   0.96630   0.37330   Biso      1.000     O          -0.598565           
         O43       1.0000    0.70410   0.78970   0.33620   Biso      1.000     O          -0.607668           
         O44       1.0000    0.20090   0.78820   0.17710   Biso      1.000     O          -0.5852189999999999           
         O45       1.0000    0.33410   0.66090   0.20890   Biso      1.000     O          -0.6425649999999999           
         O46       1.0000    0.17430   0.84850   0.94910   Biso      1.000     O          -0.610698           
         O47       1.0000    0.38920   0.92220   0.99530   Biso      1.000     O          -0.610345           
         O48       1.0000    0.20490   0.49070   0.08780   Biso      1.000     O          -0.58883 