
##########################################################################
#               Crystallographic Information Format file
#               Produced by PyCifRW module
#
#  This is a CIF file.  CIF has been adopted by the International
#  Union of Crystallography as the standard for data archiving and
#  transmission.
#
#  For information on this file format, follow the CIF links at
#  http://www.iucr.org
##########################################################################

data_image0

_cell_length_a                          10.943
_cell_length_b                          11.828
_cell_length_c                          19.261
_cell_angle_alpha                       90
_cell_angle_beta                        90
_cell_angle_gamma                       90
_symmetry_space_group_name_H-M          'P 1'
_symmetry_int_tables_number             1
loop_
  _symmetry_equiv_pos_as_xyz
         'x, y, z' 
loop_
  _atom_site_label
  _atom_site_occupancy
  _atom_site_fract_x
  _atom_site_fract_y
  _atom_site_fract_z
  _atom_site_thermal_displace_type
  _atom_site_B_iso_or_equiv
  _atom_site_type_symbol
  _atom_site_charge
         C1        1.0000    0.05150   0.66000   0.90620   Biso      1.000     C          0.521437  
         C2        1.0000    0.10170   0.97260   0.21410   Biso      1.000     C          0.266403  
         C3        1.0000    0.12660   0.15620   0.24220   Biso      1.000     C          0.15748399999999999           
         C4        1.0000    0.02080   0.18460   0.20630   Biso      1.000     C          -0.191688           
         C5        1.0000    0.95950   0.09730   0.17630   Biso      1.000     C          0.16561199999999998           
         C6        1.0000    0.83970   0.11600   0.13760   Biso      1.000     C          0.56709   
         C7        1.0000    0.20380   0.24920   0.27740   Biso      1.000     C          0.561913  
         C8        1.0000    0.32280   0.12050   0.47310   Biso      1.000     C          0.49656999999999996           
         C9        1.0000    0.20110   0.06820   0.44860   Biso      1.000     C          0.5172899999999999  
         C10       1.0000    0.33130   0.05840   0.74090   Biso      1.000     C          0.25033299999999997           
         C11       1.0000    0.36440   0.14210   0.84400   Biso      1.000     C          0.163658  
         C12       1.0000    0.25730   0.20310   0.83710   Biso      1.000     C          -0.186388           
         C13       1.0000    0.55150   0.84000   0.40620   Biso      1.000     C          0.521012  
         C14       1.0000    0.19420   0.19220   0.77680   Biso      1.000     C          0.16526   
         C15       1.0000    0.44850   0.16000   0.90620   Biso      1.000     C          0.521529  
         C16       1.0000    0.89830   0.02740   0.71410   Biso      1.000     C          0.26659299999999997           
         C17       1.0000    0.87340   0.84380   0.74220   Biso      1.000     C          0.156645  
         C18       1.0000    0.97920   0.81540   0.70630   Biso      1.000     C          -0.192691           
         C19       1.0000    0.04050   0.90270   0.67630   Biso      1.000     C          0.16504000000000002           
         C20       1.0000    0.16030   0.88400   0.63760   Biso      1.000     C          0.567016  
         C21       1.0000    0.79620   0.75080   0.77740   Biso      1.000     C          0.561431  
         C22       1.0000    0.67720   0.87950   0.97310   Biso      1.000     C          0.496704  
         C23       1.0000    0.79890   0.93180   0.94860   Biso      1.000     C          0.518145  
         C24       1.0000    0.83130   0.44160   0.24090   Biso      1.000     C          0.250199  
         C25       1.0000    0.86440   0.35790   0.34400   Biso      1.000     C          0.168622  
         C26       1.0000    0.08650   0.26730   0.75880   Biso      1.000     C          0.5647979999999999  
         C27       1.0000    0.91350   0.73270   0.25880   Biso      1.000     C          0.564663  
         C28       1.0000    0.80580   0.80780   0.27680   Biso      1.000     C          0.164938  
         C29       1.0000    0.74270   0.79690   0.33710   Biso      1.000     C          -0.186069           
         C30       1.0000    0.70110   0.43180   0.94860   Biso      1.000     C          0.518397  
         C31       1.0000    0.82280   0.37950   0.97310   Biso      1.000     C          0.49686800000000003           
         C32       1.0000    0.70380   0.25080   0.77740   Biso      1.000     C          0.561588  
         C33       1.0000    0.33970   0.38400   0.63760   Biso      1.000     C          0.567099  
         C34       1.0000    0.45950   0.40270   0.67630   Biso      1.000     C          0.165188  
         C35       1.0000    0.52080   0.31540   0.70630   Biso      1.000     C          -0.192447           
         C36       1.0000    0.62660   0.34380   0.74220   Biso      1.000     C          0.156889  
         C37       1.0000    0.60170   0.52740   0.71410   Biso      1.000     C          0.266484  
         C38       1.0000    0.41350   0.76730   0.75880   Biso      1.000     C          0.564959  
         C39       1.0000    0.30580   0.69220   0.77680   Biso      1.000     C          0.165181  
         C40       1.0000    0.24270   0.70310   0.83710   Biso      1.000     C          -0.186526           
         C41       1.0000    0.13560   0.64210   0.84400   Biso      1.000     C          0.163476  
         C42       1.0000    0.16870   0.55840   0.74090   Biso      1.000     C          0.250294  
         C43       1.0000    0.29890   0.56820   0.44860   Biso      1.000     C          0.5181899999999999  
         C44       1.0000    0.17720   0.62050   0.47310   Biso      1.000     C          0.49657399999999996           
         C45       1.0000    0.29620   0.74920   0.27740   Biso      1.000     C          0.561393  
         C46       1.0000    0.66030   0.61600   0.13760   Biso      1.000     C          0.567254  
         C47       1.0000    0.54050   0.59730   0.17630   Biso      1.000     C          0.165759  
         C48       1.0000    0.47920   0.68460   0.20630   Biso      1.000     C          -0.192273           
         C49       1.0000    0.37340   0.65620   0.24220   Biso      1.000     C          0.156838  
         C50       1.0000    0.39830   0.47260   0.21410   Biso      1.000     C          0.266339  
         C51       1.0000    0.94850   0.34000   0.40620   Biso      1.000     C          0.523898  
         C52       1.0000    0.58650   0.23270   0.25880   Biso      1.000     C          0.565702  
         C53       1.0000    0.66870   0.94160   0.24090   Biso      1.000     C          0.250367  
         C54       1.0000    0.63560   0.85790   0.34400   Biso      1.000     C          0.163123  
         C55       1.0000    0.75730   0.29690   0.33710   Biso      1.000     C          -0.18446700000000002          
         C56       1.0000    0.69420   0.30780   0.27680   Biso      1.000     C          0.16409200000000002           
         Eu1       1.0000    0.86245   0.84249   0.10301   Biso      1.000     Eu          1.297161  
         Eu2       1.0000    0.38106   0.02847   0.31746   Biso      1.000     Eu          1.232811  
         Eu3       1.0000    0.13755   0.15751   0.60301   Biso      1.000     Eu          1.297965  
         Eu4       1.0000    0.61894   0.97153   0.81746   Biso      1.000     Eu          1.233165  
         Eu5       1.0000    0.63755   0.34249   0.10301   Biso      1.000     Eu          1.297087  
         Eu6       1.0000    0.11894   0.52847   0.31746   Biso      1.000     Eu          1.231367  
         Eu7       1.0000    0.36245   0.65751   0.60301   Biso      1.000     Eu          1.2969870000000001  
         Eu8       1.0000    0.88106   0.47153   0.81746   Biso      1.000     Eu          1.233325  
         H1        1.0000    0.62960   0.60150   0.71670   Biso      1.000     H          0.08404600000000001           
         H2        1.0000    0.49360   0.24110   0.70290   Biso      1.000     H          0.15196500000000002           
         H3        1.0000    0.77050   0.75010   0.37250   Biso      1.000     H          0.1656    
         H4        1.0000    0.12960   0.89850   0.21670   Biso      1.000     H          0.083995  
         H5        1.0000    0.64560   0.99450   0.20770   Biso      1.000     H          0.084722  
         H6        1.0000    0.35440   0.00550   0.70770   Biso      1.000     H          0.085043  
         H7        1.0000    0.27050   0.74990   0.87250   Biso      1.000     H          0.16558499999999998           
         H8        1.0000    0.99360   0.25890   0.20290   Biso      1.000     H          0.15226099999999998           
         H9        1.0000    0.50640   0.75890   0.20290   Biso      1.000     H          0.152168  
         H10       1.0000    0.37040   0.39850   0.21670   Biso      1.000     H          0.084128  
         H11       1.0000    0.72950   0.25010   0.37250   Biso      1.000     H          0.16583299999999998           
         H12       1.0000    0.14560   0.50550   0.70770   Biso      1.000     H          0.085099  
         H13       1.0000    0.00640   0.74110   0.70290   Biso      1.000     H          0.151943  
         H14       1.0000    0.87040   0.10150   0.71670   Biso      1.000     H          0.084125  
         H15       1.0000    0.22950   0.24990   0.87250   Biso      1.000     H          0.165627  
         H16       1.0000    0.85440   0.49450   0.20770   Biso      1.000     H          0.084574  
         N1        1.0000    0.90260   0.43160   0.29570   Biso      1.000     N          -0.291292           
         N2        1.0000    0.66750   0.44890   0.74730   Biso      1.000     N          -0.287934           
         N3        1.0000    0.49890   0.50930   0.67730   Biso      1.000     N          -0.325085           
         N4        1.0000    0.09740   0.56840   0.79570   Biso      1.000     N          -0.286648           
         N5        1.0000    0.26990   0.61610   0.72830   Biso      1.000     N          -0.298558           
         N6        1.0000    0.33250   0.55110   0.24730   Biso      1.000     N          -0.28689000000000003          
         N7        1.0000    0.50110   0.49070   0.17730   Biso      1.000     N          -0.323945           
         N8        1.0000    0.73010   0.38390   0.22830   Biso      1.000     N          -0.300088           
         N9        1.0000    0.83250   0.94890   0.74730   Biso      1.000     N          -0.288273           
         N10       1.0000    0.00110   0.00930   0.67730   Biso      1.000     N          -0.325077           
         N11       1.0000    0.40260   0.06840   0.79570   Biso      1.000     N          -0.28679099999999996          
         N12       1.0000    0.23010   0.11610   0.72830   Biso      1.000     N          -0.298466           
         N13       1.0000    0.16750   0.05110   0.24730   Biso      1.000     N          -0.288017           
         N14       1.0000    0.99890   0.99070   0.17730   Biso      1.000     N          -0.324772           
         N15       1.0000    0.59740   0.93160   0.29570   Biso      1.000     N          -0.288628           
         N16       1.0000    0.76990   0.88390   0.22830   Biso      1.000     N          -0.29986999999999997          
         O1        1.0000    0.09180   0.62410   0.42900   Biso      1.000     O          -0.392486           
         O2        1.0000    0.33350   0.84860   0.27360   Biso      1.000     O          -0.569955           
         O3        1.0000    0.19950   0.71740   0.30650   Biso      1.000     O          -0.485839           
         O4        1.0000    0.70750   0.71170   0.14580   Biso      1.000     O          -0.561673           
         O5        1.0000    0.04610   0.39650   0.40700   Biso      1.000     O          -0.478137           
         O6        1.0000    0.91460   0.26920   0.44940   Biso      1.000     O          -0.43859899999999996          
         O7        1.0000    0.17340   0.65330   0.53470   Biso      1.000     O          -0.41889  
         O8        1.0000    0.54920   0.16670   0.30500   Biso      1.000     O          -0.512295           
         O9        1.0000    0.70500   0.53530   0.10430   Biso      1.000     O          -0.557892           
         O10       1.0000    0.29530   0.51460   0.39190   Biso      1.000     O          -0.427379           
         O11       1.0000    0.95390   0.60350   0.90700   Biso      1.000     O          -0.48858100000000004          
         O12       1.0000    0.45440   0.75950   0.69840   Biso      1.000     O          -0.571326           
         O13       1.0000    0.45080   0.83330   0.80500   Biso      1.000     O          -0.5148550000000001           
         O14       1.0000    0.54560   0.24050   0.19840   Biso      1.000     O          -0.570429           
         O15       1.0000    0.08540   0.73080   0.94940   Biso      1.000     O          -0.39910500000000004          
         O16       1.0000    0.29500   0.46470   0.60430   Biso      1.000     O          -0.55648  
         O17       1.0000    0.82660   0.34670   0.03470   Biso      1.000     O          -0.41924399999999995          
         O18       1.0000    0.29250   0.28830   0.64580   Biso      1.000     O          -0.562203           
         O19       1.0000    0.80050   0.28260   0.80650   Biso      1.000     O          -0.48782  
         O20       1.0000    0.66650   0.15140   0.77360   Biso      1.000     O          -0.570431           
         O21       1.0000    0.90820   0.37590   0.92900   Biso      1.000     O          -0.392353           
         O22       1.0000    0.39020   0.58180   0.48640   Biso      1.000     O          -0.44433199999999995          
         O23       1.0000    0.89020   0.91820   0.98640   Biso      1.000     O          -0.444963           
         O24       1.0000    0.79500   0.03530   0.10430   Biso      1.000     O          -0.555901           
         O25       1.0000    0.67340   0.84670   0.03470   Biso      1.000     O          -0.419459           
         O26       1.0000    0.70470   0.48540   0.89190   Biso      1.000     O          -0.42768599999999996          
         O27       1.0000    0.95440   0.74050   0.19840   Biso      1.000     O          -0.570817           
         O28       1.0000    0.95080   0.66670   0.30500   Biso      1.000     O          -0.514009           
         O29       1.0000    0.45390   0.89650   0.40700   Biso      1.000     O          -0.484525           
         O30       1.0000    0.58540   0.76920   0.44940   Biso      1.000     O          -0.399841           
         O31       1.0000    0.79250   0.21170   0.14580   Biso      1.000     O          -0.563523           
         O32       1.0000    0.30050   0.21740   0.30650   Biso      1.000     O          -0.48607700000000004          
         O33       1.0000    0.16650   0.34860   0.27360   Biso      1.000     O          -0.57057  
         O34       1.0000    0.40820   0.12410   0.42900   Biso      1.000     O          -0.39201199999999997          
         O35       1.0000    0.32660   0.15330   0.53470   Biso      1.000     O          -0.41839799999999994          
         O36       1.0000    0.20470   0.01460   0.39190   Biso      1.000     O          -0.42722200000000005          
         O37       1.0000    0.10980   0.08180   0.48640   Biso      1.000     O          -0.43976899999999997          
         O38       1.0000    0.04560   0.25950   0.69840   Biso      1.000     O          -0.569755           
         O39       1.0000    0.04920   0.33330   0.80500   Biso      1.000     O          -0.515021           
         O40       1.0000    0.54610   0.10350   0.90700   Biso      1.000     O          -0.48802399999999996          
         O41       1.0000    0.41460   0.23080   0.94940   Biso      1.000     O          -0.40017800000000003          
         O42       1.0000    0.20500   0.96470   0.60430   Biso      1.000     O          -0.556836           
         O43       1.0000    0.20750   0.78830   0.64580   Biso      1.000     O          -0.5618609999999999           
         O44       1.0000    0.69950   0.78260   0.80650   Biso      1.000     O          -0.48753100000000005          
         O45       1.0000    0.83350   0.65140   0.77360   Biso      1.000     O          -0.5704279999999999           
         O46       1.0000    0.59180   0.87590   0.92900   Biso      1.000     O          -0.392886           
         O47       1.0000    0.79530   0.98540   0.89190   Biso      1.000     O          -0.42738100000000007          
         O48       1.0000    0.60980   0.41820   0.98640   Biso      1.000     O          -0.445064 