
##########################################################################
#               Crystallographic Information Format file
#               Produced by PyCifRW module
#
#  This is a CIF file.  CIF has been adopted by the International
#  Union of Crystallography as the standard for data archiving and
#  transmission.
#
#  For information on this file format, follow the CIF links at
#  http://www.iucr.org
##########################################################################

data_image0

_cell_length_a                          10.934
_cell_length_b                          11.7927
_cell_length_c                          19.2152
_cell_angle_alpha                       90
_cell_angle_beta                        90
_cell_angle_gamma                       90
_symmetry_space_group_name_H-M          'P 1'
_symmetry_int_tables_number             1
loop_
  _symmetry_equiv_pos_as_xyz
         'x, y, z' 
loop_
  _atom_site_label
  _atom_site_occupancy
  _atom_site_fract_x
  _atom_site_fract_y
  _atom_site_fract_z
  _atom_site_thermal_displace_type
  _atom_site_B_iso_or_equiv
  _atom_site_type_symbol
  _atom_site_charge
         C1        1.0000    0.55240   0.65890   0.62230   Biso      1.000     C          0.556341  
         C2        1.0000    0.60160   0.97290   0.31420   Biso      1.000     C          0.29842199999999997           
         C3        1.0000    0.62660   0.15830   0.28640   Biso      1.000     C          0.164172  
         C4        1.0000    0.52100   0.18620   0.32240   Biso      1.000     C          -0.170192           
         C5        1.0000    0.46010   0.09730   0.35280   Biso      1.000     C          0.179698  
         C6        1.0000    0.33960   0.11640   0.39100   Biso      1.000     C          0.603162  
         C7        1.0000    0.70350   0.24970   0.25090   Biso      1.000     C          0.618825  
         C8        1.0000    0.70050   0.06920   0.08040   Biso      1.000     C          0.547566  
         C9        1.0000    0.82260   0.12070   0.05500   Biso      1.000     C          0.5135069999999999  
         C10       1.0000    0.83150   0.05700   0.78880   Biso      1.000     C          0.265031  
         C11       1.0000    0.86500   0.14070   0.68470   Biso      1.000     C          0.19425599999999998           
         C12       1.0000    0.75710   0.20310   0.69140   Biso      1.000     C          -0.16779000000000002          
         C13       1.0000    0.05240   0.84110   0.12230   Biso      1.000     C          0.556341  
         C14       1.0000    0.69500   0.19020   0.75210   Biso      1.000     C          0.164826  
         C15       1.0000    0.94760   0.15890   0.62230   Biso      1.000     C          0.556341  
         C16       1.0000    0.39840   0.02710   0.81420   Biso      1.000     C          0.29842199999999997           
         C17       1.0000    0.37340   0.84170   0.78640   Biso      1.000     C          0.164172  
         C18       1.0000    0.47900   0.81380   0.82240   Biso      1.000     C          -0.170192           
         C19       1.0000    0.53990   0.90270   0.85280   Biso      1.000     C          0.179698  
         C20       1.0000    0.66040   0.88360   0.89100   Biso      1.000     C          0.603162  
         C21       1.0000    0.29650   0.75030   0.75090   Biso      1.000     C          0.618825  
         C22       1.0000    0.29950   0.93080   0.58040   Biso      1.000     C          0.547566  
         C23       1.0000    0.17740   0.87930   0.55500   Biso      1.000     C          0.5135069999999999  
         C24       1.0000    0.33150   0.44300   0.28880   Biso      1.000     C          0.265031  
         C25       1.0000    0.36500   0.35930   0.18470   Biso      1.000     C          0.19425599999999998           
         C26       1.0000    0.58610   0.26720   0.76960   Biso      1.000     C          0.605742  
         C27       1.0000    0.41390   0.73280   0.26960   Biso      1.000     C          0.605743  
         C28       1.0000    0.30500   0.80980   0.25210   Biso      1.000     C          0.16481600000000002           
         C29       1.0000    0.24290   0.79690   0.19140   Biso      1.000     C          -0.16777899999999998          
         C30       1.0000    0.32260   0.37930   0.55500   Biso      1.000     C          0.5135069999999999  
         C31       1.0000    0.20050   0.43080   0.58040   Biso      1.000     C          0.547566  
         C32       1.0000    0.20350   0.25030   0.75090   Biso      1.000     C          0.618825  
         C33       1.0000    0.83960   0.38360   0.89100   Biso      1.000     C          0.603163  
         C34       1.0000    0.96010   0.40270   0.85280   Biso      1.000     C          0.17969300000000002           
         C35       1.0000    0.02100   0.31380   0.82240   Biso      1.000     C          -0.170188           
         C36       1.0000    0.12660   0.34170   0.78640   Biso      1.000     C          0.164173  
         C37       1.0000    0.10160   0.52710   0.81420   Biso      1.000     C          0.29842199999999997           
         C38       1.0000    0.91390   0.76720   0.76960   Biso      1.000     C          0.605743  
         C39       1.0000    0.80500   0.69020   0.75210   Biso      1.000     C          0.16481600000000002           
         C40       1.0000    0.74290   0.70310   0.69140   Biso      1.000     C          -0.16777899999999998          
         C41       1.0000    0.63500   0.64070   0.68470   Biso      1.000     C          0.19425499999999998           
         C42       1.0000    0.66850   0.55700   0.78880   Biso      1.000     C          0.265031  
         C43       1.0000    0.67740   0.62070   0.05500   Biso      1.000     C          0.5135069999999999  
         C44       1.0000    0.79950   0.56920   0.08040   Biso      1.000     C          0.547566  
         C45       1.0000    0.79650   0.74970   0.25090   Biso      1.000     C          0.618825  
         C46       1.0000    0.16040   0.61640   0.39100   Biso      1.000     C          0.603163  
         C47       1.0000    0.03990   0.59730   0.35280   Biso      1.000     C          0.17969300000000002           
         C48       1.0000    0.97900   0.68620   0.32240   Biso      1.000     C          -0.170188           
         C49       1.0000    0.87340   0.65830   0.28640   Biso      1.000     C          0.164173  
         C50       1.0000    0.89840   0.47290   0.31420   Biso      1.000     C          0.29842199999999997           
         C51       1.0000    0.44760   0.34110   0.12230   Biso      1.000     C          0.556341  
         C52       1.0000    0.08610   0.23280   0.26960   Biso      1.000     C          0.605742  
         C53       1.0000    0.16850   0.94300   0.28880   Biso      1.000     C          0.265031  
         C54       1.0000    0.13500   0.85930   0.18470   Biso      1.000     C          0.19425499999999998           
         C55       1.0000    0.25710   0.29690   0.19140   Biso      1.000     C          -0.16779000000000002          
         C56       1.0000    0.19500   0.30980   0.25210   Biso      1.000     C          0.164826  
         Gd1       1.0000    0.36210   0.84276   0.42584   Biso      1.000     Gd          1.9768720000000002  
         Gd2       1.0000    0.88086   0.02944   0.21137   Biso      1.000     Gd          1.9139599999999999  
         Gd3       1.0000    0.63790   0.15724   0.92584   Biso      1.000     Gd          1.9768720000000002  
         Gd4       1.0000    0.11914   0.97056   0.71137   Biso      1.000     Gd          1.9139599999999999  
         Gd5       1.0000    0.13790   0.34276   0.42584   Biso      1.000     Gd          1.9768720000000002  
         Gd6       1.0000    0.61914   0.52944   0.21137   Biso      1.000     Gd          1.9139599999999999  
         Gd7       1.0000    0.86210   0.65724   0.92584   Biso      1.000     Gd          1.9768720000000002  
         Gd8       1.0000    0.38086   0.47056   0.71137   Biso      1.000     Gd          1.9139599999999999  
         H1        1.0000    0.12940   0.60140   0.81130   Biso      1.000     H          0.086781  
         H2        1.0000    0.99320   0.23940   0.82570   Biso      1.000     H          0.15674200000000002           
         H3        1.0000    0.27070   0.74930   0.15630   Biso      1.000     H          0.175296  
         H4        1.0000    0.62940   0.89860   0.31130   Biso      1.000     H          0.086781  
         H5        1.0000    0.14580   0.99690   0.32160   Biso      1.000     H          0.079917  
         H6        1.0000    0.85420   0.00310   0.82160   Biso      1.000     H          0.079917  
         H7        1.0000    0.77070   0.75070   0.65630   Biso      1.000     H          0.175296  
         H8        1.0000    0.49320   0.26060   0.32570   Biso      1.000     H          0.15674200000000002           
         H9        1.0000    0.00680   0.76060   0.32570   Biso      1.000     H          0.15674200000000002           
         H10       1.0000    0.87060   0.39860   0.31130   Biso      1.000     H          0.086781  
         H11       1.0000    0.22930   0.24930   0.15630   Biso      1.000     H          0.175297  
         H12       1.0000    0.64580   0.50310   0.82160   Biso      1.000     H          0.079917  
         H13       1.0000    0.50680   0.73940   0.82570   Biso      1.000     H          0.15674200000000002           
         H14       1.0000    0.37060   0.10140   0.81130   Biso      1.000     H          0.086781  
         H15       1.0000    0.72930   0.25070   0.65630   Biso      1.000     H          0.175297  
         H16       1.0000    0.35420   0.49690   0.32160   Biso      1.000     H          0.079917  
         N1        1.0000    0.40290   0.43180   0.23310   Biso      1.000     N          -0.373666           
         N2        1.0000    0.16690   0.44860   0.78130   Biso      1.000     N          -0.343535           
         N3        1.0000    0.99920   0.50920   0.85120   Biso      1.000     N          -0.38838  
         N4        1.0000    0.59710   0.56820   0.73310   Biso      1.000     N          -0.373666           
         N5        1.0000    0.76980   0.61650   0.80160   Biso      1.000     N          -0.375711           
         N6        1.0000    0.83310   0.55140   0.28130   Biso      1.000     N          -0.343535           
         N7        1.0000    0.00080   0.49080   0.35120   Biso      1.000     N          -0.38838  
         N8        1.0000    0.23020   0.38350   0.30160   Biso      1.000     N          -0.375712           
         N9        1.0000    0.33310   0.94860   0.78130   Biso      1.000     N          -0.343535           
         N10       1.0000    0.50080   0.00920   0.85120   Biso      1.000     N          -0.38838  
         N11       1.0000    0.90290   0.06820   0.73310   Biso      1.000     N          -0.373666           
         N12       1.0000    0.73020   0.11650   0.80160   Biso      1.000     N          -0.375712           
         N13       1.0000    0.66690   0.05140   0.28130   Biso      1.000     N          -0.343535           
         N14       1.0000    0.49920   0.99080   0.35120   Biso      1.000     N          -0.38838  
         N15       1.0000    0.09710   0.93180   0.23310   Biso      1.000     N          -0.373666           
         N16       1.0000    0.26980   0.88350   0.30160   Biso      1.000     N          -0.375711           
         O1        1.0000    0.88930   0.58250   0.04230   Biso      1.000     O          -0.6123430000000001           
         O2        1.0000    0.83420   0.84880   0.25490   Biso      1.000     O          -0.651539           
         O3        1.0000    0.69980   0.71760   0.22200   Biso      1.000     O          -0.589229           
         O4        1.0000    0.20850   0.71230   0.38330   Biso      1.000     O          -0.610813           
         O5        1.0000    0.54590   0.39850   0.12190   Biso      1.000     O          -0.644745           
         O6        1.0000    0.41330   0.27200   0.07930   Biso      1.000     O          -0.5507569999999999           
         O7        1.0000    0.79530   0.51510   0.13720   Biso      1.000     O          -0.5933729999999999           
         O8        1.0000    0.04930   0.16730   0.22370   Biso      1.000     O          -0.560926           
         O9        1.0000    0.20460   0.53540   0.42540   Biso      1.000     O          -0.613476           
         O10       1.0000    0.67310   0.65360   0.99350   Biso      1.000     O          -0.5905060000000001           
         O11       1.0000    0.45410   0.60150   0.62190   Biso      1.000     O          -0.644745           
         O12       1.0000    0.95380   0.75950   0.83140   Biso      1.000     O          -0.702584           
         O13       1.0000    0.95070   0.83270   0.72370   Biso      1.000     O          -0.560926           
         O14       1.0000    0.04620   0.24050   0.33140   Biso      1.000     O          -0.702584           
         O15       1.0000    0.58670   0.72800   0.57930   Biso      1.000     O          -0.5507569999999999           
         O16       1.0000    0.79540   0.46460   0.92540   Biso      1.000     O          -0.613476           
         O17       1.0000    0.20470   0.48490   0.63720   Biso      1.000     O          -0.5933729999999999           
         O18       1.0000    0.79150   0.28770   0.88330   Biso      1.000     O          -0.610813           
         O19       1.0000    0.30020   0.28240   0.72200   Biso      1.000     O          -0.589229           
         O20       1.0000    0.16580   0.15120   0.75490   Biso      1.000     O          -0.651539           
         O21       1.0000    0.11070   0.41750   0.54230   Biso      1.000     O          -0.6123430000000001           
         O22       1.0000    0.59090   0.62490   0.10030   Biso      1.000     O          -0.561553           
         O23       1.0000    0.09090   0.87510   0.60030   Biso      1.000     O          -0.561553           
         O24       1.0000    0.29540   0.03540   0.42540   Biso      1.000     O          -0.613476           
         O25       1.0000    0.29530   0.98490   0.63720   Biso      1.000     O          -0.5933729999999999           
         O26       1.0000    0.32690   0.34640   0.49350   Biso      1.000     O          -0.5905060000000001           
         O27       1.0000    0.45380   0.74050   0.33140   Biso      1.000     O          -0.702584           
         O28       1.0000    0.45070   0.66730   0.22370   Biso      1.000     O          -0.560926           
         O29       1.0000    0.95410   0.89850   0.12190   Biso      1.000     O          -0.644745           
         O30       1.0000    0.08670   0.77200   0.07930   Biso      1.000     O          -0.5507569999999999           
         O31       1.0000    0.29150   0.21230   0.38330   Biso      1.000     O          -0.610813           
         O32       1.0000    0.80020   0.21760   0.22200   Biso      1.000     O          -0.589229           
         O33       1.0000    0.66580   0.34880   0.25490   Biso      1.000     O          -0.651539           
         O34       1.0000    0.61070   0.08250   0.04230   Biso      1.000     O          -0.6123430000000001           
         O35       1.0000    0.70470   0.01510   0.13720   Biso      1.000     O          -0.5933729999999999           
         O36       1.0000    0.82690   0.15360   0.99350   Biso      1.000     O          -0.5905060000000001           
         O37       1.0000    0.90910   0.12490   0.10030   Biso      1.000     O          -0.561553           
         O38       1.0000    0.54620   0.25950   0.83140   Biso      1.000     O          -0.702584           
         O39       1.0000    0.54930   0.33270   0.72370   Biso      1.000     O          -0.560926           
         O40       1.0000    0.04590   0.10150   0.62190   Biso      1.000     O          -0.644745           
         O41       1.0000    0.91330   0.22800   0.57930   Biso      1.000     O          -0.5507569999999999           
         O42       1.0000    0.70460   0.96460   0.92540   Biso      1.000     O          -0.613476           
         O43       1.0000    0.70850   0.78770   0.88330   Biso      1.000     O          -0.610813           
         O44       1.0000    0.19980   0.78240   0.72200   Biso      1.000     O          -0.589229           
         O45       1.0000    0.33420   0.65120   0.75490   Biso      1.000     O          -0.651539           
         O46       1.0000    0.38930   0.91750   0.54230   Biso      1.000     O          -0.6123430000000001           
         O47       1.0000    0.17310   0.84640   0.49350   Biso      1.000     O          -0.5905060000000001           
         O48       1.0000    0.40910   0.37510   0.60030   Biso      1.000     O          -0.561553 