
##########################################################################
#               Crystallographic Information Format file
#               Produced by PyCifRW module
#
#  This is a CIF file.  CIF has been adopted by the International
#  Union of Crystallography as the standard for data archiving and
#  transmission.
#
#  For information on this file format, follow the CIF links at
#  http://www.iucr.org
##########################################################################

data_image0

_cell_length_a                          10.962
_cell_length_b                          11.868
_cell_length_c                          19.307
_cell_angle_alpha                       90
_cell_angle_beta                        90
_cell_angle_gamma                       90
_symmetry_space_group_name_H-M          'P 1'
_symmetry_int_tables_number             1
loop_
  _symmetry_equiv_pos_as_xyz
         'x, y, z' 
loop_
  _atom_site_label
  _atom_site_occupancy
  _atom_site_fract_x
  _atom_site_fract_y
  _atom_site_fract_z
  _atom_site_thermal_displace_type
  _atom_site_B_iso_or_equiv
  _atom_site_type_symbol
  _atom_site_charge
         C1        1.0000    0.55170   0.83720   0.40430   Biso      1.000     C          0.559462  
         C2        1.0000    0.89930   0.02750   0.71230   Biso      1.000     C          0.300328  
         C3        1.0000    0.08700   0.26870   0.75650   Biso      1.000     C          0.606687  
         C4        1.0000    0.19360   0.19200   0.77480   Biso      1.000     C          0.170147  
         C5        1.0000    0.25690   0.20490   0.83500   Biso      1.000     C          -0.166117           
         C6        1.0000    0.36440   0.14410   0.84250   Biso      1.000     C          0.19128   
         C7        1.0000    0.33020   0.05920   0.73940   Biso      1.000     C          0.264252  
         C8        1.0000    0.29950   0.56750   0.44690   Biso      1.000     C          0.540879  
         C9        1.0000    0.87350   0.84290   0.74000   Biso      1.000     C          0.1666    
         C10       1.0000    0.17790   0.61980   0.47100   Biso      1.000     C          0.51866   
         C11       1.0000    0.66100   0.61650   0.13610   Biso      1.000     C          0.606719  
         C12       1.0000    0.54130   0.59720   0.17420   Biso      1.000     C          0.182908  
         C13       1.0000    0.47790   0.68390   0.20470   Biso      1.000     C          -0.17006  
         C14       1.0000    0.37350   0.65710   0.24000   Biso      1.000     C          0.166605  
         C15       1.0000    0.39930   0.47250   0.21230   Biso      1.000     C          0.300328  
         C16       1.0000    0.94830   0.33720   0.40430   Biso      1.000     C          0.559462  
         C17       1.0000    0.58700   0.23130   0.25650   Biso      1.000     C          0.606687  
         C18       1.0000    0.29640   0.74690   0.27540   Biso      1.000     C          0.619039  
         C19       1.0000    0.69360   0.30800   0.27480   Biso      1.000     C          0.170147  
         C20       1.0000    0.97790   0.81610   0.70470   Biso      1.000     C          -0.170057           
         C21       1.0000    0.16100   0.88350   0.63610   Biso      1.000     C          0.606718  
         C22       1.0000    0.20050   0.06750   0.44690   Biso      1.000     C          0.540879  
         C23       1.0000    0.32210   0.11980   0.47100   Biso      1.000     C          0.51866   
         C24       1.0000    0.20360   0.24690   0.27540   Biso      1.000     C          0.61904   
         C25       1.0000    0.83900   0.11650   0.13610   Biso      1.000     C          0.606719  
         C26       1.0000    0.95870   0.09720   0.17420   Biso      1.000     C          0.182908  
         C27       1.0000    0.02210   0.18390   0.20470   Biso      1.000     C          -0.17006  
         C28       1.0000    0.12650   0.15710   0.24000   Biso      1.000     C          0.166605  
         C29       1.0000    0.04130   0.90280   0.67420   Biso      1.000     C          0.182911  
         C30       1.0000    0.10070   0.97250   0.21230   Biso      1.000     C          0.300328  
         C31       1.0000    0.80640   0.80800   0.27480   Biso      1.000     C          0.170147  
         C32       1.0000    0.74310   0.79510   0.33500   Biso      1.000     C          -0.166117           
         C33       1.0000    0.63560   0.85590   0.34250   Biso      1.000     C          0.191279  
         C34       1.0000    0.66980   0.94080   0.23940   Biso      1.000     C          0.264252  
         C35       1.0000    0.79950   0.93250   0.94690   Biso      1.000     C          0.540879  
         C36       1.0000    0.67790   0.88020   0.97100   Biso      1.000     C          0.51866   
         C37       1.0000    0.79640   0.75310   0.77540   Biso      1.000     C          0.61904   
         C38       1.0000    0.91300   0.73130   0.25650   Biso      1.000     C          0.606687  
         C39       1.0000    0.75690   0.29510   0.33500   Biso      1.000     C          -0.166117           
         C40       1.0000    0.44830   0.16280   0.90430   Biso      1.000     C          0.559462  
         C41       1.0000    0.83020   0.44080   0.23940   Biso      1.000     C          0.264252  
         C42       1.0000    0.86440   0.35590   0.34250   Biso      1.000     C          0.191279  
         C43       1.0000    0.16980   0.55920   0.73940   Biso      1.000     C          0.264252  
         C44       1.0000    0.13560   0.64410   0.84250   Biso      1.000     C          0.191279  
         C45       1.0000    0.24310   0.70490   0.83500   Biso      1.000     C          -0.166129           
         C46       1.0000    0.41300   0.76870   0.75650   Biso      1.000     C          0.606686  
         C47       1.0000    0.05170   0.66280   0.90430   Biso      1.000     C          0.559462  
         C48       1.0000    0.60070   0.52750   0.71230   Biso      1.000     C          0.300328  
         C49       1.0000    0.30640   0.69200   0.77480   Biso      1.000     C          0.17016   
         C50       1.0000    0.52210   0.31610   0.70470   Biso      1.000     C          -0.170064           
         C51       1.0000    0.45870   0.40280   0.67420   Biso      1.000     C          0.182912  
         C52       1.0000    0.33900   0.38350   0.63610   Biso      1.000     C          0.606718  
         C53       1.0000    0.70360   0.25310   0.77540   Biso      1.000     C          0.61904   
         C54       1.0000    0.82210   0.38020   0.97100   Biso      1.000     C          0.51866   
         C55       1.0000    0.70050   0.43250   0.94690   Biso      1.000     C          0.540878  
         C56       1.0000    0.62650   0.34290   0.74000   Biso      1.000     C          0.166605  
         H1        1.0000    0.37230   0.39840   0.21510   Biso      1.000     H          0.086838  
         H2        1.0000    0.14800   0.50470   0.70710   Biso      1.000     H          0.078528  
         H3        1.0000    0.27090   0.75260   0.86980   Biso      1.000     H          0.17274   
         H4        1.0000    0.49510   0.24200   0.70150   Biso      1.000     H          0.155638  
         H5        1.0000    0.85200   0.49530   0.20710   Biso      1.000     H          0.078528  
         H6        1.0000    0.72910   0.24740   0.36980   Biso      1.000     H          0.172739  
         H7        1.0000    0.50490   0.75800   0.20150   Biso      1.000     H          0.155638  
         H8        1.0000    0.62770   0.60160   0.71510   Biso      1.000     H          0.086838  
         H9        1.0000    0.22910   0.25260   0.86980   Biso      1.000     H          0.172739  
         H10       1.0000    0.87230   0.10160   0.71510   Biso      1.000     H          0.086838  
         H11       1.0000    0.00490   0.74200   0.70150   Biso      1.000     H          0.155637  
         H12       1.0000    0.64800   0.99530   0.20710   Biso      1.000     H          0.078528  
         H13       1.0000    0.77090   0.74740   0.36980   Biso      1.000     H          0.172739  
         H14       1.0000    0.35200   0.00470   0.70710   Biso      1.000     H          0.078528  
         H15       1.0000    0.12770   0.89840   0.21510   Biso      1.000     H          0.086838  
         H16       1.0000    0.99510   0.25800   0.20150   Biso      1.000     H          0.155638  
         N1        1.0000    0.50110   0.49090   0.17570   Biso      1.000     N          -0.395969           
         N2        1.0000    0.33300   0.54960   0.24520   Biso      1.000     N          -0.353836           
         N3        1.0000    0.22960   0.11890   0.72620   Biso      1.000     N          -0.38055  
         N4        1.0000    0.40160   0.07040   0.79400   Biso      1.000     N          -0.37966  
         N5        1.0000    0.77040   0.88110   0.22620   Biso      1.000     N          -0.38055  
         N6        1.0000    0.83300   0.95040   0.74520   Biso      1.000     N          -0.353835           
         N7        1.0000    0.90160   0.42960   0.29400   Biso      1.000     N          -0.37966  
         N8        1.0000    0.59840   0.92960   0.29400   Biso      1.000     N          -0.37966  
         N9        1.0000    0.99890   0.99090   0.17570   Biso      1.000     N          -0.395969           
         N10       1.0000    0.16700   0.04960   0.24520   Biso      1.000     N          -0.353836           
         N11       1.0000    0.00110   0.00910   0.67570   Biso      1.000     N          -0.395969           
         N12       1.0000    0.72960   0.38110   0.22620   Biso      1.000     N          -0.38055  
         N13       1.0000    0.09840   0.57040   0.79400   Biso      1.000     N          -0.37966  
         N14       1.0000    0.49890   0.50910   0.67570   Biso      1.000     N          -0.395969           
         N15       1.0000    0.27040   0.61890   0.72620   Biso      1.000     N          -0.380552           
         N16       1.0000    0.66700   0.45040   0.74520   Biso      1.000     N          -0.353836           
         O1        1.0000    0.20600   0.96560   0.60330   Biso      1.000     O          -0.62147  
         O2        1.0000    0.41550   0.23320   0.94650   Biso      1.000     O          -0.557022           
         O3        1.0000    0.54420   0.10450   0.90560   Biso      1.000     O          -0.64769  
         O4        1.0000    0.05020   0.33430   0.80310   Biso      1.000     O          -0.579153           
         O5        1.0000    0.04550   0.26010   0.69620   Biso      1.000     O          -0.699071           
         O6        1.0000    0.29580   0.51320   0.39010   Biso      1.000     O          -0.597596           
         O7        1.0000    0.39050   0.58140   0.48460   Biso      1.000     O          -0.615555           
         O8        1.0000    0.09140   0.62320   0.42710   Biso      1.000     O          -0.556796           
         O9        1.0000    0.83400   0.65390   0.77200   Biso      1.000     O          -0.665814           
         O10       1.0000    0.20810   0.78850   0.64360   Biso      1.000     O          -0.609359           
         O11       1.0000    0.70020   0.78390   0.80430   Biso      1.000     O          -0.589534           
         O12       1.0000    0.67470   0.84650   0.03230   Biso      1.000     O          -0.603431           
         O13       1.0000    0.16600   0.34610   0.27200   Biso      1.000     O          -0.665814           
         O14       1.0000    0.89050   0.91860   0.98460   Biso      1.000     O          -0.615555           
         O15       1.0000    0.79580   0.98680   0.89010   Biso      1.000     O          -0.597596           
         O16       1.0000    0.95450   0.73990   0.19620   Biso      1.000     O          -0.699071           
         O17       1.0000    0.94980   0.66570   0.30310   Biso      1.000     O          -0.579153           
         O18       1.0000    0.40860   0.12320   0.42710   Biso      1.000     O          -0.556796           
         O19       1.0000    0.32530   0.15350   0.53230   Biso      1.000     O          -0.603431           
         O20       1.0000    0.29980   0.21610   0.30430   Biso      1.000     O          -0.589534           
         O21       1.0000    0.79190   0.21150   0.14360   Biso      1.000     O          -0.609359           
         O22       1.0000    0.79400   0.03440   0.10330   Biso      1.000     O          -0.62147  
         O23       1.0000    0.58450   0.76680   0.44650   Biso      1.000     O          -0.557022           
         O24       1.0000    0.45580   0.89550   0.40560   Biso      1.000     O          -0.64769  
         O25       1.0000    0.17470   0.65350   0.53230   Biso      1.000     O          -0.603431           
         O26       1.0000    0.59140   0.87680   0.92710   Biso      1.000     O          -0.556796           
         O27       1.0000    0.33400   0.84610   0.27200   Biso      1.000     O          -0.665814           
         O28       1.0000    0.20420   0.01320   0.39010   Biso      1.000     O          -0.597596           
         O29       1.0000    0.70810   0.71150   0.14360   Biso      1.000     O          -0.609359           
         O30       1.0000    0.10950   0.08140   0.48460   Biso      1.000     O          -0.615555           
         O31       1.0000    0.45450   0.76010   0.69620   Biso      1.000     O          -0.699071           
         O32       1.0000    0.44980   0.83430   0.80310   Biso      1.000     O          -0.579153           
         O33       1.0000    0.95580   0.60450   0.90560   Biso      1.000     O          -0.64769  
         O34       1.0000    0.08450   0.73320   0.94650   Biso      1.000     O          -0.557022           
         O35       1.0000    0.20020   0.71610   0.30430   Biso      1.000     O          -0.589534           
         O36       1.0000    0.29190   0.28850   0.64360   Biso      1.000     O          -0.609359           
         O37       1.0000    0.79980   0.28390   0.80430   Biso      1.000     O          -0.589534           
         O38       1.0000    0.66600   0.15390   0.77200   Biso      1.000     O          -0.665814           
         O39       1.0000    0.29400   0.46560   0.60330   Biso      1.000     O          -0.62147  
         O40       1.0000    0.90860   0.37680   0.92710   Biso      1.000     O          -0.556796           
         O41       1.0000    0.60950   0.41860   0.98460   Biso      1.000     O          -0.615555           
         O42       1.0000    0.70420   0.48680   0.89010   Biso      1.000     O          -0.597596           
         O43       1.0000    0.54550   0.23990   0.19620   Biso      1.000     O          -0.699071           
         O44       1.0000    0.55020   0.16570   0.30310   Biso      1.000     O          -0.579153           
         O45       1.0000    0.04420   0.39550   0.40560   Biso      1.000     O          -0.64769  
         O46       1.0000    0.91550   0.26680   0.44650   Biso      1.000     O          -0.557022           
         O47       1.0000    0.70600   0.53440   0.10330   Biso      1.000     O          -0.62147  
         O48       1.0000    0.82530   0.34650   0.03230   Biso      1.000     O          -0.603431           
         Sm1       1.0000    0.88120   0.47292   0.81564   Biso      1.000     Sm          1.959909  
         Sm2       1.0000    0.63724   0.34234   0.10119   Biso      1.000     Sm          2.008066  
         Sm3       1.0000    0.11880   0.52708   0.31564   Biso      1.000     Sm          1.959909  
         Sm4       1.0000    0.38120   0.02708   0.31564   Biso      1.000     Sm          1.95991   
         Sm5       1.0000    0.61880   0.97292   0.81564   Biso      1.000     Sm          1.959909  
         Sm6       1.0000    0.86276   0.84234   0.10119   Biso      1.000     Sm          2.008067  
         Sm7       1.0000    0.13724   0.15766   0.60119   Biso      1.000     Sm          2.008067  
         Sm8       1.0000    0.36276   0.65766   0.60119   Biso      1.000     Sm          2.008067 