
##########################################################################
#               Crystallographic Information Format file
#               Produced by PyCifRW module
#
#  This is a CIF file.  CIF has been adopted by the International
#  Union of Crystallography as the standard for data archiving and
#  transmission.
#
#  For information on this file format, follow the CIF links at
#  http://www.iucr.org
##########################################################################

data_image0

_cell_length_a                          14.4988
_cell_length_b                          17.1659
_cell_length_c                          18.1536
_cell_angle_alpha                       90
_cell_angle_beta                        90
_cell_angle_gamma                       90
_symmetry_space_group_name_H-M          'P 1'
_symmetry_int_tables_number             1
loop_
  _symmetry_equiv_pos_as_xyz
         'x, y, z' 
loop_
  _atom_site_label
  _atom_site_occupancy
  _atom_site_fract_x
  _atom_site_fract_y
  _atom_site_fract_z
  _atom_site_thermal_displace_type
  _atom_site_B_iso_or_equiv
  _atom_site_type_symbol
  _atom_site_charge
         C1        1.0000    0.06860   0.13910   0.27490   Biso      1.000     C          -0.091835           
         C2        1.0000    0.96540   0.25980   0.81270   Biso      1.000     C          -0.016597           
         C3        1.0000    0.05060   0.20480   0.31630   Biso      1.000     C          -0.102003           
         C4        1.0000    0.05060   0.29520   0.81630   Biso      1.000     C          -0.102005           
         C5        1.0000    0.06860   0.36090   0.77490   Biso      1.000     C          -0.091833           
         C6        1.0000    0.94930   0.18580   0.85530   Biso      1.000     C          0.626015  
         C7        1.0000    0.31970   0.55490   0.54570   Biso      1.000     C          0.581844  
         C8        1.0000    0.41420   0.52650   0.52310   Biso      1.000     C          -0.017628           
         C9        1.0000    0.95290   0.46120   0.94470   Biso      1.000     C          -0.120427           
         C10       1.0000    0.96160   0.56490   0.03200   Biso      1.000     C          -0.119752           
         C11       1.0000    0.91420   0.52650   0.97690   Biso      1.000     C          -0.017627           
         C12       1.0000    0.81970   0.55490   0.95430   Biso      1.000     C          0.581844  
         C13       1.0000    0.44930   0.18580   0.64470   Biso      1.000     C          0.626015  
         C14       1.0000    0.56860   0.36090   0.72510   Biso      1.000     C          -0.091835           
         C15       1.0000    0.55060   0.29520   0.68370   Biso      1.000     C          -0.102003           
         C16       1.0000    0.46540   0.25980   0.68730   Biso      1.000     C          -0.016597           
         C17       1.0000    0.08480   0.85790   0.77260   Biso      1.000     C          -0.102037           
         C18       1.0000    0.41520   0.35790   0.77260   Biso      1.000     C          -0.102038           
         C19       1.0000    0.50070   0.39240   0.77040   Biso      1.000     C          -0.025224           
         C20       1.0000    0.52280   0.45910   0.82070   Biso      1.000     C          0.615667  
         C21       1.0000    0.04710   0.96120   0.55530   Biso      1.000     C          -0.120427           
         C22       1.0000    0.03840   0.06490   0.46800   Biso      1.000     C          -0.119753           
         C23       1.0000    0.08580   0.02650   0.52310   Biso      1.000     C          -0.017627           
         C24       1.0000    0.18030   0.05490   0.54570   Biso      1.000     C          0.581844  
         C25       1.0000    0.55070   0.68580   0.85530   Biso      1.000     C          0.626015  
         C26       1.0000    0.43140   0.86090   0.77490   Biso      1.000     C          -0.091835           
         C27       1.0000    0.44940   0.79520   0.81630   Biso      1.000     C          -0.102003           
         C28       1.0000    0.53460   0.75980   0.81270   Biso      1.000     C          -0.016597           
         C29       1.0000    0.89680   0.29140   0.76860   Biso      1.000     C          -0.09862  
         C30       1.0000    0.60320   0.79140   0.76860   Biso      1.000     C          -0.09862  
         C31       1.0000    0.91520   0.35790   0.72740   Biso      1.000     C          -0.102036           
         C32       1.0000    0.02280   0.45910   0.67930   Biso      1.000     C          0.615666  
         C33       1.0000    0.99930   0.89240   0.77040   Biso      1.000     C          -0.025225           
         C34       1.0000    0.97720   0.95910   0.82070   Biso      1.000     C          0.615667  
         C35       1.0000    0.94930   0.31420   0.35530   Biso      1.000     C          0.626015  
         C36       1.0000    0.31970   0.94510   0.04570   Biso      1.000     C          0.581844  
         C37       1.0000    0.41420   0.97350   0.02310   Biso      1.000     C          -0.017627           
         C38       1.0000    0.46160   0.93510   0.96800   Biso      1.000     C          -0.119753           
         C39       1.0000    0.45290   0.03880   0.05530   Biso      1.000     C          -0.120427           
         C40       1.0000    0.97720   0.54090   0.32070   Biso      1.000     C          0.615667  
         C41       1.0000    0.99930   0.60760   0.27040   Biso      1.000     C          -0.02523  
         C42       1.0000    0.08480   0.64210   0.27260   Biso      1.000     C          -0.102031           
         C43       1.0000    0.10320   0.70860   0.23140   Biso      1.000     C          -0.098619           
         C44       1.0000    0.03460   0.74020   0.18730   Biso      1.000     C          -0.016597           
         C45       1.0000    0.94940   0.70480   0.18370   Biso      1.000     C          -0.102005           
         C46       1.0000    0.93140   0.63910   0.22510   Biso      1.000     C          -0.091831           
         C47       1.0000    0.05070   0.81420   0.14470   Biso      1.000     C          0.626015  
         C48       1.0000    0.68030   0.44510   0.45430   Biso      1.000     C          0.581844  
         C49       1.0000    0.58580   0.47350   0.47690   Biso      1.000     C          -0.017627           
         C50       1.0000    0.53840   0.43510   0.53200   Biso      1.000     C          -0.119753           
         C51       1.0000    0.54710   0.53880   0.44470   Biso      1.000     C          -0.120427           
         C52       1.0000    0.03460   0.75980   0.68730   Biso      1.000     C          -0.016597           
         C53       1.0000    0.94940   0.79520   0.68370   Biso      1.000     C          -0.102005           
         C54       1.0000    0.93140   0.86090   0.72510   Biso      1.000     C          -0.091832           
         C55       1.0000    0.05070   0.68580   0.64470   Biso      1.000     C          0.626015  
         C56       1.0000    0.68030   0.05490   0.95430   Biso      1.000     C          0.581844  
         C57       1.0000    0.58580   0.02650   0.97690   Biso      1.000     C          -0.017628           
         C58       1.0000    0.53840   0.06490   0.03200   Biso      1.000     C          -0.11975  
         C59       1.0000    0.54710   0.96120   0.94470   Biso      1.000     C          -0.120424           
         C60       1.0000    0.00070   0.39240   0.72960   Biso      1.000     C          -0.025224           
         C61       1.0000    0.58480   0.85790   0.72740   Biso      1.000     C          -0.102036           
         C62       1.0000    0.39680   0.29140   0.73140   Biso      1.000     C          -0.098619           
         C63       1.0000    0.47720   0.95910   0.67930   Biso      1.000     C          0.615666  
         C64       1.0000    0.55060   0.20480   0.18370   Biso      1.000     C          -0.102005           
         C65       1.0000    0.46540   0.24020   0.18730   Biso      1.000     C          -0.016597           
         C66       1.0000    0.39680   0.20860   0.23140   Biso      1.000     C          -0.09862  
         C67       1.0000    0.41520   0.14210   0.27260   Biso      1.000     C          -0.102036           
         C68       1.0000    0.50070   0.10760   0.27040   Biso      1.000     C          -0.025225           
         C69       1.0000    0.52280   0.04090   0.32070   Biso      1.000     C          0.615667  
         C70       1.0000    0.56860   0.13910   0.22510   Biso      1.000     C          -0.091832           
         C71       1.0000    0.49930   0.89240   0.72960   Biso      1.000     C          -0.025223           
         C72       1.0000    0.45290   0.46120   0.55530   Biso      1.000     C          -0.120424           
         C73       1.0000    0.02280   0.04090   0.17930   Biso      1.000     C          0.615667  
         C74       1.0000    0.00070   0.10760   0.22960   Biso      1.000     C          -0.025229           
         C75       1.0000    0.91520   0.14210   0.22740   Biso      1.000     C          -0.102031           
         C76       1.0000    0.89680   0.20860   0.26860   Biso      1.000     C          -0.098619           
         C77       1.0000    0.96540   0.24020   0.31270   Biso      1.000     C          -0.016597           
         C78       1.0000    0.46160   0.56490   0.46800   Biso      1.000     C          -0.11975  
         C79       1.0000    0.44930   0.31420   0.14470   Biso      1.000     C          0.626015  
         C80       1.0000    0.10320   0.79140   0.73140   Biso      1.000     C          -0.098618           
         C81       1.0000    0.91420   0.97350   0.47690   Biso      1.000     C          -0.017628           
         C82       1.0000    0.04710   0.53880   0.05530   Biso      1.000     C          -0.120425           
         C83       1.0000    0.03840   0.43510   0.96800   Biso      1.000     C          -0.11975  
         C84       1.0000    0.08580   0.47350   0.02310   Biso      1.000     C          -0.017627           
         C85       1.0000    0.18030   0.44510   0.04570   Biso      1.000     C          0.581844  
         C86       1.0000    0.55070   0.81420   0.35530   Biso      1.000     C          0.626015  
         C87       1.0000    0.43140   0.63910   0.27490   Biso      1.000     C          -0.091835           
         C88       1.0000    0.81970   0.94510   0.45430   Biso      1.000     C          0.581844  
         C89       1.0000    0.53460   0.74020   0.31270   Biso      1.000     C          -0.016597           
         C90       1.0000    0.44940   0.70480   0.31630   Biso      1.000     C          -0.102003           
         C91       1.0000    0.96160   0.93510   0.53200   Biso      1.000     C          -0.11975  
         C92       1.0000    0.95290   0.03880   0.44470   Biso      1.000     C          -0.120424           
         C93       1.0000    0.47720   0.54090   0.17930   Biso      1.000     C          0.615667  
         C94       1.0000    0.49930   0.60760   0.22960   Biso      1.000     C          -0.025229           
         C95       1.0000    0.58480   0.64210   0.22740   Biso      1.000     C          -0.102031           
         C96       1.0000    0.60320   0.70860   0.26860   Biso      1.000     C          -0.098619           
         H1        1.0000    0.59600   0.27480   0.65310   Biso      1.000     H          0.123034  
         H2        1.0000    0.56420   0.10890   0.05370   Biso      1.000     H          0.108966  
         H3        1.0000    0.57840   0.93490   0.90750   Biso      1.000     H          0.11347   
         H4        1.0000    0.10970   0.57240   0.47890   Biso      1.000     H          0.433236  
         H5        1.0000    0.86910   0.37920   0.69800   Biso      1.000     H          0.119078  
         H6        1.0000    0.83880   0.26820   0.76660   Biso      1.000     H          0.126472  
         H7        1.0000    0.09600   0.27480   0.84690   Biso      1.000     H          0.123034  
         H8        1.0000    0.12650   0.38420   0.77730   Biso      1.000     H          0.122936  
         H9        1.0000    0.43580   0.60890   0.44630   Biso      1.000     H          0.108966  
         H10       1.0000    0.42160   0.43490   0.59250   Biso      1.000     H          0.11347   
         H11       1.0000    0.86910   0.12080   0.19800   Biso      1.000     H          0.119078  
         H12       1.0000    0.87350   0.88420   0.72270   Biso      1.000     H          0.122936  
         H13       1.0000    0.83880   0.23180   0.26660   Biso      1.000     H          0.126472  
         H14       1.0000    0.09600   0.22520   0.34690   Biso      1.000     H          0.123034  
         H15       1.0000    0.12650   0.11580   0.27730   Biso      1.000     H          0.122936  
         H16       1.0000    0.43580   0.89110   0.94630   Biso      1.000     H          0.108966  
         H17       1.0000    0.42160   0.06510   0.09250   Biso      1.000     H          0.11347   
         H18       1.0000    0.89030   0.42760   0.52110   Biso      1.000     H          0.433236  
         H19       1.0000    0.13090   0.62080   0.30200   Biso      1.000     H          0.119078  
         H20       1.0000    0.16120   0.73180   0.23340   Biso      1.000     H          0.126472  
         H21       1.0000    0.90400   0.72520   0.15310   Biso      1.000     H          0.123034  
         H22       1.0000    0.87350   0.61580   0.22270   Biso      1.000     H          0.122936  
         H23       1.0000    0.56420   0.39110   0.55370   Biso      1.000     H          0.108966  
         H24       1.0000    0.57840   0.56510   0.40750   Biso      1.000     H          0.11347   
         H25       1.0000    0.10970   0.92760   0.97890   Biso      1.000     H          0.433236  
         H26       1.0000    0.90400   0.77480   0.65310   Biso      1.000     H          0.123034  
         H27       1.0000    0.89030   0.07240   0.02110   Biso      1.000     H          0.433236  
         H28       1.0000    0.13090   0.87920   0.80200   Biso      1.000     H          0.119078  
         H29       1.0000    0.33880   0.26820   0.73340   Biso      1.000     H          0.126472  
         H30       1.0000    0.36910   0.37920   0.80200   Biso      1.000     H          0.119078  
         H31       1.0000    0.60970   0.57240   0.02110   Biso      1.000     H          0.433236  
         H32       1.0000    0.07840   0.93490   0.59250   Biso      1.000     H          0.11347   
         H33       1.0000    0.06420   0.10890   0.44630   Biso      1.000     H          0.108966  
         H34       1.0000    0.37350   0.88420   0.77730   Biso      1.000     H          0.122936  
         H35       1.0000    0.40400   0.77480   0.84690   Biso      1.000     H          0.123034  
         H36       1.0000    0.66120   0.76820   0.76660   Biso      1.000     H          0.126472  
         H37       1.0000    0.63090   0.87920   0.69800   Biso      1.000     H          0.119078  
         H38       1.0000    0.39030   0.07240   0.47890   Biso      1.000     H          0.433236  
         H39       1.0000    0.07840   0.56510   0.09250   Biso      1.000     H          0.11347   
         H40       1.0000    0.06420   0.39110   0.94630   Biso      1.000     H          0.108966  
         H41       1.0000    0.16120   0.76820   0.73340   Biso      1.000     H          0.126472  
         H42       1.0000    0.37350   0.61580   0.27730   Biso      1.000     H          0.122936  
         H43       1.0000    0.66120   0.73180   0.26660   Biso      1.000     H          0.126472  
         H44       1.0000    0.93580   0.60890   0.05370   Biso      1.000     H          0.108966  
         H45       1.0000    0.39030   0.42760   0.97890   Biso      1.000     H          0.433236  
         H46       1.0000    0.92160   0.06510   0.40750   Biso      1.000     H          0.11347   
         H47       1.0000    0.93580   0.89110   0.55370   Biso      1.000     H          0.108966  
         H48       1.0000    0.62650   0.11580   0.22270   Biso      1.000     H          0.122936  
         H49       1.0000    0.59600   0.22520   0.15310   Biso      1.000     H          0.123034  
         H50       1.0000    0.33880   0.23180   0.23340   Biso      1.000     H          0.126472  
         H51       1.0000    0.36910   0.12080   0.30200   Biso      1.000     H          0.119078  
         H52       1.0000    0.60970   0.92760   0.52110   Biso      1.000     H          0.433237  
         H53       1.0000    0.92160   0.43490   0.90750   Biso      1.000     H          0.11347   
         H54       1.0000    0.62650   0.38420   0.72270   Biso      1.000     H          0.122936  
         H55       1.0000    0.40400   0.72520   0.34690   Biso      1.000     H          0.123033  
         H56       1.0000    0.63090   0.62080   0.19800   Biso      1.000     H          0.119078  
         O1        1.0000    0.78480   0.61070   0.98750   Biso      1.000     O          -0.604146           
         O2        1.0000    0.04090   0.98570   0.85980   Biso      1.000     O          -0.612878           
         O3        1.0000    0.13150   0.84310   0.14720   Biso      1.000     O          -0.535861           
         O4        1.0000    0.98440   0.84250   0.11150   Biso      1.000     O          -0.594027           
         O5        1.0000    0.89560   0.51590   0.32000   Biso      1.000     O          -0.534236           
         O6        1.0000    0.04090   0.51430   0.35980   Biso      1.000     O          -0.612878           
         O7        1.0000    0.91930   0.46030   0.48710   Biso      1.000     O          -0.88494  
         O8        1.0000    0.28480   0.88930   0.01250   Biso      1.000     O          -0.604146           
         O9        1.0000    0.28140   0.98060   0.09670   Biso      1.000     O          -0.562084           
         O10       1.0000    0.86850   0.34310   0.35280   Biso      1.000     O          -0.535861           
         O11       1.0000    0.01560   0.34250   0.38850   Biso      1.000     O          -0.594027           
         O12       1.0000    0.10440   0.01590   0.18000   Biso      1.000     O          -0.534235           
         O13       1.0000    0.95910   0.01430   0.14020   Biso      1.000     O          -0.612878           
         O14       1.0000    0.08070   0.96030   0.01290   Biso      1.000     O          -0.88494  
         O15       1.0000    0.28140   0.51940   0.59670   Biso      1.000     O          -0.562084           
         O16       1.0000    0.86850   0.15690   0.85280   Biso      1.000     O          -0.535861           
         O17       1.0000    0.01560   0.15750   0.88850   Biso      1.000     O          -0.594027           
         O18       1.0000    0.10440   0.48410   0.68000   Biso      1.000     O          -0.534235           
         O19       1.0000    0.95910   0.48570   0.64020   Biso      1.000     O          -0.612878           
         O20       1.0000    0.08070   0.53970   0.51290   Biso      1.000     O          -0.88494  
         O21       1.0000    0.71520   0.11070   0.98750   Biso      1.000     O          -0.604146           
         O22       1.0000    0.71860   0.01940   0.90330   Biso      1.000     O          -0.562084           
         O23       1.0000    0.13150   0.65690   0.64720   Biso      1.000     O          -0.535861           
         O24       1.0000    0.98440   0.65750   0.61150   Biso      1.000     O          -0.594027           
         O25       1.0000    0.89560   0.98410   0.82000   Biso      1.000     O          -0.534236           
         O26       1.0000    0.91930   0.03970   0.98710   Biso      1.000     O          -0.88494  
         O27       1.0000    0.28480   0.61070   0.51250   Biso      1.000     O          -0.604146           
         O28       1.0000    0.71520   0.38930   0.48750   Biso      1.000     O          -0.604146           
         O29       1.0000    0.21520   0.38930   0.01250   Biso      1.000     O          -0.604146           
         O30       1.0000    0.60440   0.01590   0.32000   Biso      1.000     O          -0.534235           
         O31       1.0000    0.51560   0.34250   0.11150   Biso      1.000     O          -0.594027           
         O32       1.0000    0.36850   0.34310   0.14720   Biso      1.000     O          -0.535861           
         O33       1.0000    0.78140   0.98060   0.40330   Biso      1.000     O          -0.562084           
         O34       1.0000    0.78480   0.88930   0.48750   Biso      1.000     O          -0.604146           
         O35       1.0000    0.41930   0.46030   0.01290   Biso      1.000     O          -0.884941           
         O36       1.0000    0.54090   0.51430   0.14020   Biso      1.000     O          -0.612878           
         O37       1.0000    0.39560   0.51590   0.18000   Biso      1.000     O          -0.534236           
         O38       1.0000    0.48440   0.84250   0.38850   Biso      1.000     O          -0.594027           
         O39       1.0000    0.63150   0.84310   0.35280   Biso      1.000     O          -0.535861           
         O40       1.0000    0.21860   0.48060   0.09670   Biso      1.000     O          -0.562084           
         O41       1.0000    0.41930   0.03970   0.51290   Biso      1.000     O          -0.88494  
         O42       1.0000    0.54090   0.98570   0.64020   Biso      1.000     O          -0.612878           
         O43       1.0000    0.39560   0.98410   0.68000   Biso      1.000     O          -0.534235           
         O44       1.0000    0.45910   0.01430   0.35980   Biso      1.000     O          -0.612878           
         O45       1.0000    0.48440   0.65750   0.88850   Biso      1.000     O          -0.594027           
         O46       1.0000    0.21860   0.01940   0.59670   Biso      1.000     O          -0.562084           
         O47       1.0000    0.71860   0.48060   0.40330   Biso      1.000     O          -0.562084           
         O48       1.0000    0.63150   0.65690   0.85280   Biso      1.000     O          -0.535861           
         O49       1.0000    0.36850   0.15690   0.64720   Biso      1.000     O          -0.535861           
         O50       1.0000    0.51560   0.15750   0.61150   Biso      1.000     O          -0.594027           
         O51       1.0000    0.78140   0.51940   0.90330   Biso      1.000     O          -0.562084           
         O52       1.0000    0.45910   0.48570   0.85980   Biso      1.000     O          -0.612878           
         O53       1.0000    0.58070   0.53970   0.98710   Biso      1.000     O          -0.88494  
         O54       1.0000    0.21520   0.11070   0.51250   Biso      1.000     O          -0.604146           
         O55       1.0000    0.60440   0.48410   0.82000   Biso      1.000     O          -0.534235           
         O56       1.0000    0.58070   0.96030   0.48710   Biso      1.000     O          -0.88494  
         Zn1       1.0000    0.65292   0.55295   0.89764   Biso      1.000     Zn          0.937406  
         Zn2       1.0000    0.44449   0.56052   0.95177   Biso      1.000     Zn          1.114168  
         Zn3       1.0000    0.34708   0.05295   0.60236   Biso      1.000     Zn          0.937406  
         Zn4       1.0000    0.55551   0.06052   0.54823   Biso      1.000     Zn          1.114167  
         Zn5       1.0000    0.34708   0.44705   0.10236   Biso      1.000     Zn          0.937406  
         Zn6       1.0000    0.55551   0.43948   0.04823   Biso      1.000     Zn          1.114168  
         Zn7       1.0000    0.65292   0.94705   0.39764   Biso      1.000     Zn          0.937406  
         Zn8       1.0000    0.05551   0.43948   0.45177   Biso      1.000     Zn          1.114168  
         Zn9       1.0000    0.05551   0.06052   0.95177   Biso      1.000     Zn          1.114167  
         Zn10      1.0000    0.84708   0.05295   0.89764   Biso      1.000     Zn          0.937406  
         Zn11      1.0000    0.94449   0.56052   0.54823   Biso      1.000     Zn          1.114167  
         Zn12      1.0000    0.15292   0.55295   0.60236   Biso      1.000     Zn          0.937406  
         Zn13      1.0000    0.94449   0.93948   0.04823   Biso      1.000     Zn          1.114167  
         Zn14      1.0000    0.15292   0.94705   0.10236   Biso      1.000     Zn          0.937406  
         Zn15      1.0000    0.84708   0.44705   0.39764   Biso      1.000     Zn          0.937406  
         Zn16      1.0000    0.44449   0.93948   0.45177   Biso      1.000     Zn          1.114168 