
##########################################################################
#               Crystallographic Information Format file
#               Produced by PyCifRW module
#
#  This is a CIF file.  CIF has been adopted by the International
#  Union of Crystallography as the standard for data archiving and
#  transmission.
#
#  For information on this file format, follow the CIF links at
#  http://www.iucr.org
##########################################################################

data_image0

_cell_length_a                          25.667
_cell_length_b                          13.076
_cell_length_c                          8.725
_cell_angle_alpha                       90
_cell_angle_beta                        95.07
_cell_angle_gamma                       90
_symmetry_space_group_name_H-M          'P 1'
_symmetry_int_tables_number             1
loop_
  _symmetry_equiv_pos_as_xyz
         'x, y, z' 
loop_
  _atom_site_label
  _atom_site_occupancy
  _atom_site_fract_x
  _atom_site_fract_y
  _atom_site_fract_z
  _atom_site_thermal_displace_type
  _atom_site_B_iso_or_equiv
  _atom_site_type_symbol
  _atom_site_charge
         C1        1.0000    0.19838   0.61570   0.97190   Biso      1.000     C          -0.130437           
         C2        1.0000    0.06723   0.05390   0.57810   Biso      1.000     C          0.180224  
         C3        1.0000    0.10722   0.99340   0.64910   Biso      1.000     C          -0.203002           
         C4        1.0000    0.14334   0.03530   0.75450   Biso      1.000     C          0.106978  
         C5        1.0000    0.52520   0.48970   0.96460   Biso      1.000     C          -0.238072           
         C6        1.0000    0.02520   0.01030   0.46460   Biso      1.000     C          -0.238019           
         C7        1.0000    0.64334   0.46470   0.25450   Biso      1.000     C          0.107579  
         C8        1.0000    0.60722   0.50660   0.14910   Biso      1.000     C          -0.203206           
         C9        1.0000    0.56723   0.44610   0.07810   Biso      1.000     C          0.17974   
         C10       1.0000    0.56681   0.34580   0.12220   Biso      1.000     C          -0.227784           
         C11       1.0000    0.60478   0.30880   0.22880   Biso      1.000     C          0.092403  
         C12       1.0000    0.06681   0.15420   0.62220   Biso      1.000     C          -0.228094           
         C13       1.0000    0.78907   0.57720   0.07630   Biso      1.000     C          0.667025  
         C14       1.0000    0.17914   0.71530   0.89430   Biso      1.000     C          -0.334047           
         C15       1.0000    0.81270   0.47620   0.13300   Biso      1.000     C          -0.339338           
         C16       1.0000    0.80162   0.38430   0.02810   Biso      1.000     C          -0.129373           
         C17       1.0000    0.60478   0.69120   0.72880   Biso      1.000     C          0.092197  
         C18       1.0000    0.82086   0.28470   0.10570   Biso      1.000     C          -0.336819           
         C19       1.0000    0.79457   0.26250   0.25170   Biso      1.000     C          0.65692   
         C20       1.0000    0.18730   0.52380   0.86700   Biso      1.000     C          -0.336192           
         C21       1.0000    0.21093   0.42280   0.92370   Biso      1.000     C          0.665712  
         C22       1.0000    0.39522   0.69120   0.77120   Biso      1.000     C          0.092101  
         C23       1.0000    0.97480   0.98970   0.53540   Biso      1.000     C          -0.238236           
         C24       1.0000    0.20543   0.73750   0.74830   Biso      1.000     C          0.65644   
         C25       1.0000    0.29457   0.76250   0.25170   Biso      1.000     C          0.656474  
         C26       1.0000    0.32086   0.78470   0.10570   Biso      1.000     C          -0.333968           
         C27       1.0000    0.10478   0.19120   0.72880   Biso      1.000     C          0.09149   
         C28       1.0000    0.78907   0.42280   0.57630   Biso      1.000     C          0.666302  
         C29       1.0000    0.56723   0.55390   0.57810   Biso      1.000     C          0.179952  
         C30       1.0000    0.81270   0.52380   0.63300   Biso      1.000     C          -0.339528           
         C31       1.0000    0.60722   0.49340   0.64910   Biso      1.000     C          -0.202921           
         C32       1.0000    0.80162   0.61570   0.52810   Biso      1.000     C          -0.129443           
         C33       1.0000    0.64334   0.53530   0.75450   Biso      1.000     C          0.107756  
         C34       1.0000    0.82086   0.71530   0.60570   Biso      1.000     C          -0.336423           
         C35       1.0000    0.79457   0.73750   0.75170   Biso      1.000     C          0.657353  
         C36       1.0000    0.52520   0.51030   0.46460   Biso      1.000     C          -0.237944           
         C37       1.0000    0.29457   0.23750   0.75170   Biso      1.000     C          0.656027  
         C38       1.0000    0.32086   0.21530   0.60570   Biso      1.000     C          -0.333641           
         C39       1.0000    0.02520   0.98970   0.96460   Biso      1.000     C          -0.237938           
         C40       1.0000    0.14334   0.96470   0.25450   Biso      1.000     C          0.1067    
         C41       1.0000    0.30162   0.11570   0.52810   Biso      1.000     C          -0.13063  
         C42       1.0000    0.10722   0.00660   0.14910   Biso      1.000     C          -0.203318           
         C43       1.0000    0.06723   0.94610   0.07810   Biso      1.000     C          0.179901  
         C44       1.0000    0.06681   0.84580   0.12220   Biso      1.000     C          -0.228144           
         C45       1.0000    0.10478   0.80880   0.22880   Biso      1.000     C          0.091047  
         C46       1.0000    0.28907   0.07720   0.07630   Biso      1.000     C          0.665522  
         C47       1.0000    0.31270   0.02380   0.63300   Biso      1.000     C          -0.33573  
         C48       1.0000    0.31270   0.97620   0.13300   Biso      1.000     C          -0.336064           
         C49       1.0000    0.28907   0.92280   0.57630   Biso      1.000     C          0.665442  
         C50       1.0000    0.30162   0.88430   0.02810   Biso      1.000     C          -0.130738           
         C51       1.0000    0.43319   0.65420   0.87780   Biso      1.000     C          -0.228234           
         C52       1.0000    0.85666   0.96470   0.24550   Biso      1.000     C          0.107397  
         C53       1.0000    0.56681   0.65420   0.62220   Biso      1.000     C          -0.227893           
         C54       1.0000    0.89278   0.00660   0.35090   Biso      1.000     C          -0.202981           
         C55       1.0000    0.70543   0.23750   0.74830   Biso      1.000     C          0.656969  
         C56       1.0000    0.67914   0.21530   0.89430   Biso      1.000     C          -0.337035           
         C57       1.0000    0.69838   0.11570   0.97190   Biso      1.000     C          -0.129443           
         C58       1.0000    0.35666   0.46470   0.24550   Biso      1.000     C          0.107339  
         C59       1.0000    0.68730   0.02380   0.86700   Biso      1.000     C          -0.339419           
         C60       1.0000    0.39278   0.50660   0.35090   Biso      1.000     C          -0.20313  
         C61       1.0000    0.43277   0.44610   0.42190   Biso      1.000     C          0.179886  
         C62       1.0000    0.43319   0.34580   0.37780   Biso      1.000     C          -0.227928           
         C63       1.0000    0.39522   0.30880   0.27120   Biso      1.000     C          0.091934  
         C64       1.0000    0.21093   0.57720   0.42370   Biso      1.000     C          0.665649  
         C65       1.0000    0.71093   0.92280   0.92370   Biso      1.000     C          0.667046  
         C66       1.0000    0.89522   0.19120   0.77120   Biso      1.000     C          0.092289  
         C67       1.0000    0.18730   0.47620   0.36700   Biso      1.000     C          -0.335828           
         C68       1.0000    0.93319   0.15420   0.87780   Biso      1.000     C          -0.227852           
         C69       1.0000    0.19838   0.38430   0.47190   Biso      1.000     C          -0.130564           
         C70       1.0000    0.93277   0.05390   0.92190   Biso      1.000     C          0.179957  
         C71       1.0000    0.17914   0.28470   0.39430   Biso      1.000     C          -0.333448           
         C72       1.0000    0.20543   0.26250   0.24830   Biso      1.000     C          0.656105  
         C73       1.0000    0.89278   0.99340   0.85090   Biso      1.000     C          -0.203418           
         C74       1.0000    0.85666   0.03530   0.74550   Biso      1.000     C          0.107333  
         C75       1.0000    0.97480   0.01030   0.03540   Biso      1.000     C          -0.238157           
         C76       1.0000    0.70543   0.76250   0.24830   Biso      1.000     C          0.657258  
         C77       1.0000    0.67914   0.78470   0.39430   Biso      1.000     C          -0.336482           
         C78       1.0000    0.47480   0.48970   0.53540   Biso      1.000     C          -0.237956           
         C79       1.0000    0.71093   0.07720   0.42370   Biso      1.000     C          0.666248  
         C80       1.0000    0.93277   0.94610   0.42190   Biso      1.000     C          0.180242  
         C81       1.0000    0.35666   0.53530   0.74550   Biso      1.000     C          0.107422  
         C82       1.0000    0.69838   0.88430   0.47190   Biso      1.000     C          -0.129382           
         C83       1.0000    0.43277   0.55390   0.92190   Biso      1.000     C          0.180245  
         C84       1.0000    0.68730   0.97620   0.36700   Biso      1.000     C          -0.339622           
         C85       1.0000    0.39278   0.49340   0.85090   Biso      1.000     C          -0.202942           
         C86       1.0000    0.89522   0.80880   0.27120   Biso      1.000     C          0.092031  
         C87       1.0000    0.93319   0.84580   0.37780   Biso      1.000     C          -0.227764           
         C88       1.0000    0.47480   0.51030   0.03540   Biso      1.000     C          -0.237904           
         Cu1       1.0000    0.29264   0.70326   0.56182   Biso      1.000     Cu          0.777407  
         Cu2       1.0000    0.70736   0.70326   0.93818   Biso      1.000     Cu          0.784604  
         Cu3       1.0000    0.20736   0.20326   0.93818   Biso      1.000     Cu          0.774198  
         Cu4       1.0000    0.29264   0.29674   0.06182   Biso      1.000     Cu          0.774612  
         Cu5       1.0000    0.70736   0.29674   0.43818   Biso      1.000     Cu          0.782616  
         Cu6       1.0000    0.20736   0.79674   0.43818   Biso      1.000     Cu          0.77404   
         Cu7       1.0000    0.79264   0.20326   0.56182   Biso      1.000     Cu          0.782344  
         Cu8       1.0000    0.79264   0.79674   0.06182   Biso      1.000     Cu          0.783186  
         H1        1.0000    0.35840   0.21110   0.63080   Biso      1.000     H          0.128309  
         H2        1.0000    0.89610   0.26010   0.74540   Biso      1.000     H          0.09337   
         H3        1.0000    0.31410   0.27150   0.53410   Biso      1.000     H          0.14806   
         H4        1.0000    0.54070   0.69770   0.57990   Biso      1.000     H          0.12606   
         H5        1.0000    0.20010   0.53910   0.76810   Biso      1.000     H          0.144774  
         H6        1.0000    0.66980   0.49350   0.79950   Biso      1.000     H          0.09836   
         H7        1.0000    0.14970   0.51530   0.85010   Biso      1.000     H          0.127659  
         H8        1.0000    0.60920   0.42440   0.62430   Biso      1.000     H          0.13178   
         H9        1.0000    0.51850   0.55790   0.37990   Biso      1.000     H          0.113598  
         H10       1.0000    0.53770   0.44700   0.42300   Biso      1.000     H          0.111985  
         H11       1.0000    0.95930   0.19770   0.92010   Biso      1.000     H          0.12591   
         H12       1.0000    0.39610   0.76010   0.74540   Biso      1.000     H          0.093333  
         H13       1.0000    0.83020   0.99350   0.70050   Biso      1.000     H          0.098555  
         H14       1.0000    0.89080   0.92440   0.87570   Biso      1.000     H          0.132207  
         H15       1.0000    0.01850   0.05790   0.37990   Biso      1.000     H          0.113499  
         H16       1.0000    0.39080   0.42440   0.87570   Biso      1.000     H          0.131773  
         H17       1.0000    0.48150   0.55790   0.12010   Biso      1.000     H          0.113703  
         H18       1.0000    0.03770   0.94700   0.42300   Biso      1.000     H          0.111719  
         H19       1.0000    0.46230   0.44700   0.07700   Biso      1.000     H          0.112003  
         H20       1.0000    0.68590   0.27150   0.96590   Biso      1.000     H          0.147378  
         H21       1.0000    0.16980   0.99350   0.79950   Biso      1.000     H          0.09802   
         H22       1.0000    0.64160   0.21110   0.86920   Biso      1.000     H          0.127872  
         H23       1.0000    0.10920   0.92440   0.62430   Biso      1.000     H          0.131492  
         H24       1.0000    0.04070   0.19770   0.57990   Biso      1.000     H          0.1262    
         H25       1.0000    0.68120   0.10610   0.06550   Biso      1.000     H          0.100243  
         H26       1.0000    0.45930   0.69770   0.92010   Biso      1.000     H          0.126369  
         H27       1.0000    0.73570   0.12050   0.99990   Biso      1.000     H          0.10361   
         H28       1.0000    0.10390   0.26010   0.75460   Biso      1.000     H          0.093247  
         H29       1.0000    0.33020   0.49350   0.70050   Biso      1.000     H          0.097926  
         H30       1.0000    0.18590   0.77150   0.96590   Biso      1.000     H          0.148072  
         H31       1.0000    0.14160   0.71110   0.86920   Biso      1.000     H          0.128475  
         H32       1.0000    0.35030   0.01530   0.64990   Biso      1.000     H          0.127785  
         H33       1.0000    0.29990   0.03910   0.73190   Biso      1.000     H          0.144554  
         H34       1.0000    0.70010   0.03910   0.76810   Biso      1.000     H          0.144109  
         H35       1.0000    0.64970   0.01530   0.85010   Biso      1.000     H          0.127281  
         H36       1.0000    0.26430   0.12050   0.50010   Biso      1.000     H          0.103819  
         H37       1.0000    0.31880   0.10610   0.43450   Biso      1.000     H          0.100881  
         H38       1.0000    0.23570   0.62050   0.99990   Biso      1.000     H          0.104118  
         H39       1.0000    0.18120   0.60610   0.06550   Biso      1.000     H          0.100918  
         H40       1.0000    0.01850   0.94210   0.87990   Biso      1.000     H          0.113521  
         H41       1.0000    0.85030   0.51530   0.64990   Biso      1.000     H          0.127183  
         H42       1.0000    0.89610   0.73990   0.24540   Biso      1.000     H          0.093457  
         H43       1.0000    0.95930   0.80230   0.42010   Biso      1.000     H          0.125931  
         H44       1.0000    0.89080   0.07560   0.37570   Biso      1.000     H          0.13188   
         H45       1.0000    0.83020   0.00650   0.20050   Biso      1.000     H          0.098473  
         H46       1.0000    0.96230   0.05300   0.57700   Biso      1.000     H          0.112074  
         H47       1.0000    0.98150   0.94210   0.62010   Biso      1.000     H          0.11357   
         H48       1.0000    0.64970   0.98470   0.35010   Biso      1.000     H          0.127207  
         H49       1.0000    0.81410   0.22850   0.03410   Biso      1.000     H          0.147347  
         H50       1.0000    0.60390   0.76010   0.75460   Biso      1.000     H          0.093373  
         H51       1.0000    0.76430   0.37950   0.00010   Biso      1.000     H          0.103621  
         H52       1.0000    0.79990   0.46090   0.23190   Biso      1.000     H          0.144096  
         H53       1.0000    0.85030   0.48470   0.14990   Biso      1.000     H          0.127252  
         H54       1.0000    0.60390   0.23990   0.25460   Biso      1.000     H          0.093327  
         H55       1.0000    0.54070   0.30230   0.07990   Biso      1.000     H          0.125906  
         H56       1.0000    0.85840   0.28890   0.13080   Biso      1.000     H          0.127809  
         H57       1.0000    0.60920   0.57560   0.12430   Biso      1.000     H          0.132027  
         H58       1.0000    0.70010   0.96090   0.26810   Biso      1.000     H          0.144061  
         H59       1.0000    0.68120   0.89390   0.56550   Biso      1.000     H          0.100315  
         H60       1.0000    0.18590   0.22850   0.46590   Biso      1.000     H          0.147896  
         H61       1.0000    0.14160   0.28890   0.36920   Biso      1.000     H          0.128194  
         H62       1.0000    0.18120   0.39390   0.56550   Biso      1.000     H          0.100889  
         H63       1.0000    0.23570   0.37950   0.49990   Biso      1.000     H          0.104008  
         H64       1.0000    0.20010   0.46090   0.26810   Biso      1.000     H          0.144609  
         H65       1.0000    0.14970   0.48470   0.35010   Biso      1.000     H          0.127593  
         H66       1.0000    0.73570   0.87950   0.49990   Biso      1.000     H          0.103537  
         H67       1.0000    0.39610   0.23990   0.24540   Biso      1.000     H          0.093095  
         H68       1.0000    0.39080   0.57560   0.37570   Biso      1.000     H          0.131792  
         H69       1.0000    0.33020   0.50650   0.20050   Biso      1.000     H          0.097981  
         H70       1.0000    0.46230   0.55300   0.57700   Biso      1.000     H          0.112011  
         H71       1.0000    0.48150   0.44210   0.62010   Biso      1.000     H          0.113638  
         H72       1.0000    0.68590   0.72850   0.46590   Biso      1.000     H          0.147309  
         H73       1.0000    0.64160   0.78890   0.36920   Biso      1.000     H          0.127787  
         H74       1.0000    0.45930   0.30230   0.42010   Biso      1.000     H          0.126045  
         H75       1.0000    0.66980   0.50650   0.29950   Biso      1.000     H          0.098456  
         H76       1.0000    0.81880   0.39390   0.93450   Biso      1.000     H          0.100211  
         H77       1.0000    0.51850   0.44210   0.87990   Biso      1.000     H          0.113636  
         H78       1.0000    0.79990   0.53910   0.73190   Biso      1.000     H          0.144063  
         H79       1.0000    0.76430   0.62050   0.50010   Biso      1.000     H          0.103576  
         H80       1.0000    0.81880   0.60610   0.43450   Biso      1.000     H          0.100313  
         H81       1.0000    0.85840   0.71110   0.63080   Biso      1.000     H          0.127729  
         H82       1.0000    0.81410   0.77150   0.53410   Biso      1.000     H          0.147295  
         H83       1.0000    0.53770   0.55300   0.92300   Biso      1.000     H          0.112112  
         H84       1.0000    0.96230   0.94700   0.07700   Biso      1.000     H          0.112119  
         H85       1.0000    0.03770   0.05300   0.92300   Biso      1.000     H          0.111924  
         H86       1.0000    0.16980   0.00650   0.29950   Biso      1.000     H          0.098574  
         H87       1.0000    0.10920   0.07560   0.12430   Biso      1.000     H          0.13212   
         H88       1.0000    0.04070   0.80230   0.07990   Biso      1.000     H          0.126479  
         H89       1.0000    0.10390   0.73990   0.25460   Biso      1.000     H          0.093777  
         H90       1.0000    0.35030   0.98470   0.14990   Biso      1.000     H          0.127738  
         H91       1.0000    0.29990   0.96090   0.23190   Biso      1.000     H          0.144651  
         H92       1.0000    0.26430   0.87950   0.00010   Biso      1.000     H          0.103916  
         H93       1.0000    0.98150   0.05790   0.12010   Biso      1.000     H          0.113658  
         H94       1.0000    0.31880   0.89390   0.93450   Biso      1.000     H          0.101116  
         H95       1.0000    0.35840   0.78890   0.13080   Biso      1.000     H          0.12878   
         H96       1.0000    0.31410   0.72850   0.03410   Biso      1.000     H          0.148273  
         N1        1.0000    0.14254   0.13400   0.79650   Biso      1.000     N          -0.243567           
         N2        1.0000    0.64254   0.36600   0.29650   Biso      1.000     N          -0.244374           
         N3        1.0000    0.14254   0.86600   0.29650   Biso      1.000     N          -0.243491           
         N4        1.0000    0.85746   0.13400   0.70350   Biso      1.000     N          -0.244523           
         N5        1.0000    0.35746   0.63400   0.70350   Biso      1.000     N          -0.243521           
         N6        1.0000    0.35746   0.36600   0.20350   Biso      1.000     N          -0.243621           
         N7        1.0000    0.64254   0.63400   0.79650   Biso      1.000     N          -0.244803           
         N8        1.0000    0.85746   0.86600   0.20350   Biso      1.000     N          -0.244691           
         O1        1.0000    0.82108   0.78280   0.85990   Biso      1.000     O          -0.557279           
         O2        1.0000    0.81619   0.34491   0.60790   Biso      1.000     O          -0.560022           
         O3        1.0000    0.74451   0.42377   0.50680   Biso      1.000     O          -0.536887           
         O4        1.0000    0.18381   0.34491   0.89210   Biso      1.000     O          -0.55888  
         O5        1.0000    0.17892   0.78280   0.64010   Biso      1.000     O          -0.55589  
         O6        1.0000    0.24821   0.79209   0.25680   Biso      1.000     O          -0.539015           
         O7        1.0000    0.32108   0.71720   0.35990   Biso      1.000     O          -0.557407           
         O8        1.0000    0.24821   0.20791   0.75680   Biso      1.000     O          -0.538683           
         O9        1.0000    0.25549   0.57623   0.49320   Biso      1.000     O          -0.536466           
         O10       1.0000    0.18381   0.65509   0.39210   Biso      1.000     O          -0.559485           
         O11       1.0000    0.17892   0.21720   0.14010   Biso      1.000     O          -0.555588           
         O12       1.0000    0.25179   0.29209   0.24320   Biso      1.000     O          -0.53888  
         O13       1.0000    0.25179   0.70791   0.74320   Biso      1.000     O          -0.539805           
         O14       1.0000    0.32108   0.28280   0.85990   Biso      1.000     O          -0.555891           
         O15       1.0000    0.82108   0.21720   0.35990   Biso      1.000     O          -0.5574   
         O16       1.0000    0.75179   0.79209   0.24320   Biso      1.000     O          -0.539929           
         O17       1.0000    0.74821   0.29209   0.25680   Biso      1.000     O          -0.540045           
         O18       1.0000    0.74451   0.57623   0.00680   Biso      1.000     O          -0.536822           
         O19       1.0000    0.24451   0.07623   0.00680   Biso      1.000     O          -0.535088           
         O20       1.0000    0.31619   0.15509   0.10790   Biso      1.000     O          -0.559113           
         O21       1.0000    0.74821   0.70791   0.75680   Biso      1.000     O          -0.540198           
         O22       1.0000    0.25549   0.42377   0.99320   Biso      1.000     O          -0.535327           
         O23       1.0000    0.31619   0.84491   0.60790   Biso      1.000     O          -0.560374           
         O24       1.0000    0.24451   0.92377   0.50680   Biso      1.000     O          -0.535634           
         O25       1.0000    0.67892   0.28280   0.64010   Biso      1.000     O          -0.55767  
         O26       1.0000    0.68381   0.84491   0.89210   Biso      1.000     O          -0.560255           
         O27       1.0000    0.75549   0.92377   0.99320   Biso      1.000     O          -0.536497           
         O28       1.0000    0.75549   0.07623   0.49320   Biso      1.000     O          -0.536737           
         O29       1.0000    0.81619   0.65509   0.10790   Biso      1.000     O          -0.559892           
         O30       1.0000    0.67892   0.71720   0.14010   Biso      1.000     O          -0.557674           
         O31       1.0000    0.75179   0.20791   0.74320   Biso      1.000     O          -0.539945           
         O32       1.0000    0.68381   0.15509   0.39210   Biso      1.000     O          -0.560205 