
##########################################################################
#               Crystallographic Information Format file
#               Produced by PyCifRW module
#
#  This is a CIF file.  CIF has been adopted by the International
#  Union of Crystallography as the standard for data archiving and
#  transmission.
#
#  For information on this file format, follow the CIF links at
#  http://www.iucr.org
##########################################################################

data_image0

_cell_length_a                          10.395
_cell_length_b                          10.779
_cell_length_c                          21.445
_cell_angle_alpha                       90
_cell_angle_beta                        90
_cell_angle_gamma                       112.06
_symmetry_space_group_name_H-M          'P 1'
_symmetry_int_tables_number             1
loop_
  _symmetry_equiv_pos_as_xyz
         'x, y, z' 
loop_
  _atom_site_label
  _atom_site_occupancy
  _atom_site_fract_x
  _atom_site_fract_y
  _atom_site_fract_z
  _atom_site_thermal_displace_type
  _atom_site_B_iso_or_equiv
  _atom_site_type_symbol
  _atom_site_charge
         C1        1.0000    0.44010   0.97860   0.09754   Biso      1.000     C          0.6918310000000001  
         C2        1.0000    0.95290   0.60930   0.81687   Biso      1.000     C          -0.014136000000000001         
         C3        1.0000    0.28360   0.87230   0.18780   Biso      1.000     C          -0.186872           
         C4        1.0000    0.25450   0.85870   0.25100   Biso      1.000     C          0.157933  
         C5        1.0000    0.44710   0.33870   0.37055   Biso      1.000     C          0.5985050000000001  
         C6        1.0000    0.08860   0.38720   0.29378   Biso      1.000     C          -0.0063939999999999995        
         C7        1.0000    0.00070   0.34480   0.24288   Biso      1.000     C          -0.13461199999999998          
         C8        1.0000    0.22530   0.47640   0.28427   Biso      1.000     C          -0.142993           
         C9        1.0000    0.04710   0.39070   0.18313   Biso      1.000     C          -0.014135           
         C10       1.0000    0.50370   0.69470   0.25902   Biso      1.000     C          -0.176405           
         C11       1.0000    0.01320   0.03410   0.29034   Biso      1.000     C          -0.11790999999999999          
         C12       1.0000    0.41160   0.96160   0.16689   Biso      1.000     C          -0.011987000000000001         
         C13       1.0000    0.04120   0.33810   0.35908   Biso      1.000     C          0.622581  
         C14       1.0000    0.08880   0.09420   0.17891   Biso      1.000     C          0.587432  
         C15       1.0000    0.18230   0.48140   0.17378   Biso      1.000     C          -0.147196           
         C16       1.0000    0.27090   0.52360   0.22493   Biso      1.000     C          0.072311  
         C17       1.0000    0.41200   0.61660   0.21593   Biso      1.000     C          0.10610599999999999           
         C18       1.0000    0.98240   0.01970   0.22691   Biso      1.000     C          -0.010740000000000001         
         C19       1.0000    0.91160   0.96160   0.33311   Biso      1.000     C          -0.011987000000000001         
         C20       1.0000    0.94010   0.97860   0.40246   Biso      1.000     C          0.6918310000000001  
         C21       1.0000    0.78360   0.87230   0.31220   Biso      1.000     C          -0.186872           
         C22       1.0000    0.75450   0.85870   0.24900   Biso      1.000     C          0.157934  
         C23       1.0000    0.94710   0.33870   0.12945   Biso      1.000     C          0.5985050000000001  
         C24       1.0000    0.85320   0.93450   0.20586   Biso      1.000     C          -0.166168           
         C25       1.0000    0.41140   0.61280   0.79378   Biso      1.000     C          -0.0063939999999999995        
         C26       1.0000    0.48240   0.01970   0.27309   Biso      1.000     C          -0.010740000000000001         
         C27       1.0000    0.77090   0.52360   0.27507   Biso      1.000     C          0.072311  
         C28       1.0000    0.95880   0.66190   0.64092   Biso      1.000     C          0.62258   
         C29       1.0000    0.14680   0.06550   0.79414   Biso      1.000     C          -0.166169           
         C30       1.0000    0.91120   0.90580   0.82109   Biso      1.000     C          0.587432  
         C31       1.0000    0.81770   0.51860   0.82622   Biso      1.000     C          -0.147196           
         C32       1.0000    0.72910   0.47640   0.77507   Biso      1.000     C          0.072312  
         C33       1.0000    0.58800   0.38340   0.78407   Biso      1.000     C          0.106101  
         C34       1.0000    0.01760   0.98030   0.77309   Biso      1.000     C          -0.010739           
         C35       1.0000    0.08840   0.03840   0.66689   Biso      1.000     C          -0.011987000000000001         
         C36       1.0000    0.05990   0.02140   0.59754   Biso      1.000     C          0.6918310000000001  
         C37       1.0000    0.21640   0.12770   0.68780   Biso      1.000     C          -0.186872           
         C38       1.0000    0.91200   0.61660   0.28407   Biso      1.000     C          0.10610399999999999           
         C39       1.0000    0.24550   0.14130   0.75100   Biso      1.000     C          0.157934  
         C40       1.0000    0.58860   0.38720   0.20622   Biso      1.000     C          -0.0063939999999999995        
         C41       1.0000    0.50070   0.34480   0.25712   Biso      1.000     C          -0.13461199999999998          
         C42       1.0000    0.72530   0.47640   0.21573   Biso      1.000     C          -0.142993           
         C43       1.0000    0.54710   0.39070   0.31687   Biso      1.000     C          -0.014135           
         C44       1.0000    0.00370   0.69470   0.24098   Biso      1.000     C          -0.1764   
         C45       1.0000    0.51320   0.03410   0.20966   Biso      1.000     C          -0.11790999999999999          
         C46       1.0000    0.54120   0.33810   0.14092   Biso      1.000     C          0.62258   
         C47       1.0000    0.35320   0.93450   0.29414   Biso      1.000     C          -0.166169           
         C48       1.0000    0.58880   0.09420   0.32109   Biso      1.000     C          0.587432  
         C49       1.0000    0.68230   0.48140   0.32622   Biso      1.000     C          -0.14719400000000002          
         C50       1.0000    0.05290   0.66130   0.87055   Biso      1.000     C          0.5985050000000001  
         C51       1.0000    0.49930   0.65520   0.74288   Biso      1.000     C          -0.13461199999999998          
         C52       1.0000    0.27470   0.52360   0.78427   Biso      1.000     C          -0.142993           
         C53       1.0000    0.45290   0.60930   0.68313   Biso      1.000     C          -0.014135           
         C54       1.0000    0.91140   0.61280   0.70622   Biso      1.000     C          -0.0063939999999999995        
         C55       1.0000    0.99930   0.65520   0.75712   Biso      1.000     C          -0.13461099999999998          
         C56       1.0000    0.77470   0.52360   0.71573   Biso      1.000     C          -0.142993           
         C57       1.0000    0.98680   0.96590   0.70966   Biso      1.000     C          -0.11790999999999999          
         C58       1.0000    0.55290   0.66130   0.62945   Biso      1.000     C          0.5985050000000001  
         C59       1.0000    0.74550   0.14130   0.74900   Biso      1.000     C          0.157932  
         C60       1.0000    0.71640   0.12770   0.81220   Biso      1.000     C          -0.186871           
         C61       1.0000    0.55990   0.02140   0.90246   Biso      1.000     C          0.6918310000000001  
         C62       1.0000    0.58840   0.03840   0.83311   Biso      1.000     C          -0.011987000000000001         
         C63       1.0000    0.49630   0.30530   0.74098   Biso      1.000     C          -0.1764   
         C64       1.0000    0.08800   0.38340   0.71593   Biso      1.000     C          0.10610399999999999           
         C65       1.0000    0.22910   0.47640   0.72493   Biso      1.000     C          0.072311  
         C66       1.0000    0.31770   0.51860   0.67378   Biso      1.000     C          -0.14719400000000002          
         C67       1.0000    0.41120   0.90580   0.67891   Biso      1.000     C          0.587432  
         C68       1.0000    0.99630   0.30530   0.75902   Biso      1.000     C          -0.1764   
         C69       1.0000    0.48680   0.96590   0.79034   Biso      1.000     C          -0.11790999999999999          
         C70       1.0000    0.45880   0.66190   0.85908   Biso      1.000     C          0.62258   
         C71       1.0000    0.51760   0.98030   0.72691   Biso      1.000     C          -0.010740000000000001         
         C72       1.0000    0.64680   0.06550   0.70586   Biso      1.000     C          -0.166169           
         H1        1.0000    0.83260   0.92800   0.16350   Biso      1.000     H          0.13783199999999998           
         H2        1.0000    0.21300   0.51340   0.13400   Biso      1.000     H          0.11486700000000001           
         H3        1.0000    0.71750   0.82160   0.34080   Biso      1.000     H          0.124868  
         H4        1.0000    0.27110   0.19510   0.17350   Biso      1.000     H          0.402977  
         H5        1.0000    0.59020   0.71490   0.74870   Biso      1.000     H          0.12484300000000001           
         H6        1.0000    0.66740   0.07200   0.66350   Biso      1.000     H          0.13783199999999998           
         H7        1.0000    0.01160   0.29990   0.80150   Biso      1.000     H          0.146771  
         H8        1.0000    0.39980   0.90880   0.80400   Biso      1.000     H          0.139835  
         H9        1.0000    0.28700   0.48660   0.63400   Biso      1.000     H          0.11486700000000001           
         H10       1.0000    0.78250   0.17840   0.84080   Biso      1.000     H          0.124868  
         H11       1.0000    0.22890   0.80490   0.67350   Biso      1.000     H          0.402977  
         H12       1.0000    0.21420   0.49590   0.81790   Biso      1.000     H          0.124554  
         H13       1.0000    0.10020   0.09120   0.30400   Biso      1.000     H          0.139835  
         H14       1.0000    0.90980   0.28510   0.24870   Biso      1.000     H          0.12484300000000001           
         H15       1.0000    0.28580   0.50410   0.31790   Biso      1.000     H          0.124553  
         H16       1.0000    0.09020   0.71490   0.75130   Biso      1.000     H          0.12484300000000001           
         H17       1.0000    0.71420   0.49590   0.68210   Biso      1.000     H          0.124553  
         H18       1.0000    0.51160   0.29990   0.69850   Biso      1.000     H          0.146771  
         H19       1.0000    0.89980   0.90880   0.69600   Biso      1.000     H          0.139835  
         H20       1.0000    0.16740   0.07200   0.83650   Biso      1.000     H          0.13783199999999998           
         H21       1.0000    0.78700   0.48660   0.86600   Biso      1.000     H          0.11486700000000001           
         H22       1.0000    0.28250   0.17840   0.65920   Biso      1.000     H          0.124868  
         H23       1.0000    0.72890   0.80490   0.82650   Biso      1.000     H          0.402977  
         H24       1.0000    0.40980   0.28510   0.25130   Biso      1.000     H          0.12484300000000001           
         H25       1.0000    0.78580   0.50410   0.18210   Biso      1.000     H          0.124553  
         H26       1.0000    0.60020   0.09120   0.19600   Biso      1.000     H          0.139835  
         H27       1.0000    0.33260   0.92800   0.33650   Biso      1.000     H          0.13783199999999998           
         H28       1.0000    0.71300   0.51340   0.36600   Biso      1.000     H          0.11486700000000001           
         H29       1.0000    0.21750   0.82160   0.15920   Biso      1.000     H          0.124868  
         H30       1.0000    0.77110   0.19510   0.32650   Biso      1.000     H          0.402977  
         H31       1.0000    0.48840   0.70010   0.30150   Biso      1.000     H          0.146771  
         H32       1.0000    0.98840   0.70010   0.19850   Biso      1.000     H          0.146771  
         La1       1.0000    0.76694   0.75943   0.52780   Biso      1.000     La          2.0354229999999998  
         La2       1.0000    0.26694   0.75943   0.97220   Biso      1.000     La          2.0354229999999998  
         La3       1.0000    0.23306   0.24057   0.47220   Biso      1.000     La          2.0354229999999998  
         La4       1.0000    0.73306   0.24057   0.02780   Biso      1.000     La          2.0354229999999998  
         N1        1.0000    0.39790   0.27500   0.83375   Biso      1.000     N          -0.128674           
         N2        1.0000    0.37780   0.23710   0.77331   Biso      1.000     N          0.145344  
         N3        1.0000    0.97420   0.63750   0.34050   Biso      1.000     N          -0.227591           
         N4        1.0000    0.10210   0.72500   0.33375   Biso      1.000     N          -0.128642           
         N5        1.0000    0.12220   0.76290   0.27331   Biso      1.000     N          0.145342  
         N6        1.0000    0.52580   0.36250   0.84050   Biso      1.000     N          -0.227559           
         N7        1.0000    0.60210   0.72500   0.16625   Biso      1.000     N          -0.128674           
         N8        1.0000    0.62220   0.76290   0.22669   Biso      1.000     N          0.145345  
         N9        1.0000    0.02580   0.36250   0.65950   Biso      1.000     N          -0.227591           
         N10       1.0000    0.89790   0.27500   0.66625   Biso      1.000     N          -0.128642           
         N11       1.0000    0.87780   0.23710   0.72669   Biso      1.000     N          0.145342  
         N12       1.0000    0.47420   0.63750   0.15950   Biso      1.000     N          -0.22755999999999998          
         O1        1.0000    0.47610   0.39900   0.42324   Biso      1.000     O          -0.690721           
         O2        1.0000    0.71000   0.16140   0.29703   Biso      1.000     O          -0.498116           
         O3        1.0000    0.34250   0.91550   0.06172   Biso      1.000     O          -0.686883           
         O4        1.0000    0.33770   0.24030   0.36208   Biso      1.000     O          -0.5786819999999999           
         O5        1.0000    0.56230   0.09050   0.37638   Biso      1.000     O          -0.509135           
         O6        1.0000    0.63440   0.36480   0.09967   Biso      1.000     O          -0.695014           
         O7        1.0000    0.02390   0.60100   0.92324   Biso      1.000     O          -0.690721           
         O8        1.0000    0.08510   0.72350   0.63011   Biso      1.000     O          -0.5609689999999999           
         O9        1.0000    0.79000   0.83860   0.79703   Biso      1.000     O          -0.498116           
         O10       1.0000    0.15750   0.08450   0.56172   Biso      1.000     O          -0.686883           
         O11       1.0000    0.16230   0.75970   0.86208   Biso      1.000     O          -0.5786819999999999           
         O12       1.0000    0.93770   0.90950   0.87638   Biso      1.000     O          -0.509135           
         O13       1.0000    0.41490   0.27650   0.13011   Biso      1.000     O          -0.5609689999999999           
         O14       1.0000    0.55840   0.05360   0.08038   Biso      1.000     O          -0.642849           
         O15       1.0000    0.05840   0.05360   0.41962   Biso      1.000     O          -0.642849           
         O16       1.0000    0.91490   0.27650   0.36989   Biso      1.000     O          -0.5609689999999999           
         O17       1.0000    0.06230   0.09050   0.12362   Biso      1.000     O          -0.509135           
         O18       1.0000    0.83770   0.24030   0.13792   Biso      1.000     O          -0.5786819999999999           
         O19       1.0000    0.84250   0.91550   0.43828   Biso      1.000     O          -0.686883           
         O20       1.0000    0.21000   0.16140   0.20297   Biso      1.000     O          -0.498116           
         O21       1.0000    0.97610   0.39900   0.07676   Biso      1.000     O          -0.690721           
         O22       1.0000    0.86560   0.63520   0.59967   Biso      1.000     O          -0.695014           
         O23       1.0000    0.44160   0.94640   0.91962   Biso      1.000     O          -0.642849           
         O24       1.0000    0.36560   0.63520   0.90033   Biso      1.000     O          -0.695013           
         O25       1.0000    0.43770   0.90950   0.62362   Biso      1.000     O          -0.509135           
         O26       1.0000    0.66230   0.75970   0.63792   Biso      1.000     O          -0.5786819999999999           
         O27       1.0000    0.65750   0.08450   0.93828   Biso      1.000     O          -0.686883           
         O28       1.0000    0.29000   0.83860   0.70297   Biso      1.000     O          -0.498116           
         O29       1.0000    0.52390   0.60100   0.57676   Biso      1.000     O          -0.690721           
         O30       1.0000    0.58510   0.72350   0.86989   Biso      1.000     O          -0.5609689999999999           
         O31       1.0000    0.13440   0.36480   0.40033   Biso      1.000     O          -0.695014           
         O32       1.0000    0.94160   0.94640   0.58038   Biso      1.000     O          -0.642849 