
##########################################################################
#               Crystallographic Information Format file
#               Produced by PyCifRW module
#
#  This is a CIF file.  CIF has been adopted by the International
#  Union of Crystallography as the standard for data archiving and
#  transmission.
#
#  For information on this file format, follow the CIF links at
#  http://www.iucr.org
##########################################################################

data_image0

_cell_length_a                          9.7494
_cell_length_b                          11.0484
_cell_length_c                          20.4845
_cell_angle_alpha                       90
_cell_angle_beta                        90
_cell_angle_gamma                       108.898
_symmetry_space_group_name_H-M          'P 1'
_symmetry_int_tables_number             1
loop_
  _symmetry_equiv_pos_as_xyz
         'x, y, z' 
loop_
  _atom_site_label
  _atom_site_occupancy
  _atom_site_fract_x
  _atom_site_fract_y
  _atom_site_fract_z
  _atom_site_thermal_displace_type
  _atom_site_B_iso_or_equiv
  _atom_site_type_symbol
  _atom_site_charge
         C1        1.0000    0.73920   0.66130   0.79860   Biso      1.000     C          -0.148259           
         C2        1.0000    0.09810   0.22510   0.28900   Biso      1.000     C          0.09665399999999999           
         C3        1.0000    0.57410   0.54220   0.34160   Biso      1.000     C          0.596156  
         C4        1.0000    0.49300   0.49330   0.22600   Biso      1.000     C          -0.108161           
         C5        1.0000    0.39020   0.42830   0.18090   Biso      1.000     C          -0.025038           
         C6        1.0000    0.46620   0.47240   0.29270   Biso      1.000     C          -0.025769999999999998         
         C7        1.0000    0.53550   0.81300   0.13680   Biso      1.000     C          0.6247739999999999  
         C8        1.0000    0.48050   0.80220   0.25760   Biso      1.000     C          -0.13525399999999999          
         C9        1.0000    0.41980   0.45130   0.10910   Biso      1.000     C          0.7130350000000001  
         C10       1.0000    0.23370   0.31680   0.26800   Biso      1.000     C          0.071413  
         C11       1.0000    0.42060   0.77320   0.37550   Biso      1.000     C          0.600317  
         C12       1.0000    0.33740   0.38270   0.31380   Biso      1.000     C          -0.122387           
         C13       1.0000    0.99280   0.14250   0.25270   Biso      1.000     C          -0.16949  
         C14       1.0000    0.26080   0.33870   0.20140   Biso      1.000     C          -0.148259           
         C15       1.0000    0.57400   0.85600   0.20650   Biso      1.000     C          0.010171  
         C16       1.0000    0.70820   0.94630   0.21980   Biso      1.000     C          -0.186077           
         C17       1.0000    0.52310   0.83560   0.32160   Biso      1.000     C          0.010461  
         C18       1.0000    0.65690   0.92580   0.33490   Biso      1.000     C          -0.172376           
         C19       1.0000    0.97690   0.16440   0.82160   Biso      1.000     C          0.010462  
         C20       1.0000    0.40190   0.77490   0.78900   Biso      1.000     C          0.09665399999999999           
         C21       1.0000    0.92590   0.45780   0.84160   Biso      1.000     C          0.596156  
         C22       1.0000    0.00700   0.50670   0.72600   Biso      1.000     C          -0.108161           
         C23       1.0000    0.10980   0.57170   0.68090   Biso      1.000     C          -0.025039           
         C24       1.0000    0.03380   0.52760   0.79270   Biso      1.000     C          -0.025769999999999998         
         C25       1.0000    0.96450   0.18700   0.63680   Biso      1.000     C          0.6247739999999999  
         C26       1.0000    0.75200   0.01730   0.78330   Biso      1.000     C          0.154196  
         C27       1.0000    0.08020   0.54870   0.60910   Biso      1.000     C          0.713036  
         C28       1.0000    0.26630   0.68320   0.76800   Biso      1.000     C          0.071412  
         C29       1.0000    0.07940   0.22680   0.87550   Biso      1.000     C          0.600316  
         C30       1.0000    0.16260   0.61730   0.81380   Biso      1.000     C          -0.122387           
         C31       1.0000    0.50720   0.85750   0.75270   Biso      1.000     C          -0.169492           
         C32       1.0000    0.23920   0.66130   0.70140   Biso      1.000     C          -0.148259           
         C33       1.0000    0.92600   0.14400   0.70650   Biso      1.000     C          0.01017   
         C34       1.0000    0.79180   0.05370   0.71980   Biso      1.000     C          -0.186075           
         C35       1.0000    0.74800   0.98270   0.28330   Biso      1.000     C          0.154198  
         C36       1.0000    0.25200   0.01730   0.71670   Biso      1.000     C          0.154196  
         C37       1.0000    0.47690   0.16440   0.67840   Biso      1.000     C          0.010462  
         C38       1.0000    0.49280   0.14250   0.24730   Biso      1.000     C          -0.169506           
         C39       1.0000    0.83740   0.38270   0.18620   Biso      1.000     C          -0.12238800000000001          
         C40       1.0000    0.92060   0.77320   0.12450   Biso      1.000     C          0.600317  
         C41       1.0000    0.73370   0.31680   0.23200   Biso      1.000     C          0.071412  
         C42       1.0000    0.20820   0.94630   0.28020   Biso      1.000     C          -0.186076           
         C43       1.0000    0.91980   0.45130   0.39090   Biso      1.000     C          0.7130350000000001  
         C44       1.0000    0.76080   0.33870   0.29860   Biso      1.000     C          -0.148259           
         C45       1.0000    0.03550   0.81300   0.36320   Biso      1.000     C          0.6247739999999999  
         C46       1.0000    0.89020   0.42830   0.31910   Biso      1.000     C          -0.025039           
         C47       1.0000    0.99300   0.49330   0.27400   Biso      1.000     C          -0.10815999999999999          
         C48       1.0000    0.07410   0.54220   0.15840   Biso      1.000     C          0.596156  
         C49       1.0000    0.59810   0.22510   0.21100   Biso      1.000     C          0.09666799999999999           
         C50       1.0000    0.98050   0.80220   0.24240   Biso      1.000     C          -0.13525399999999999          
         C51       1.0000    0.15690   0.92580   0.16510   Biso      1.000     C          -0.172376           
         C52       1.0000    0.96620   0.47240   0.20730   Biso      1.000     C          -0.025769999999999998         
         C53       1.0000    0.07400   0.85600   0.29350   Biso      1.000     C          0.01017   
         C54       1.0000    0.02310   0.83560   0.17840   Biso      1.000     C          0.010459999999999999          
         C55       1.0000    0.24800   0.98270   0.21670   Biso      1.000     C          0.154197  
         C56       1.0000    0.42600   0.14400   0.79350   Biso      1.000     C          0.010171  
         C57       1.0000    0.00720   0.85750   0.74730   Biso      1.000     C          -0.169506           
         C58       1.0000    0.66260   0.61730   0.68620   Biso      1.000     C          -0.12238800000000001          
         C59       1.0000    0.57940   0.22680   0.62450   Biso      1.000     C          0.600316  
         C60       1.0000    0.76630   0.68320   0.73200   Biso      1.000     C          0.071412  
         C61       1.0000    0.29180   0.05370   0.78020   Biso      1.000     C          -0.186075           
         C62       1.0000    0.58020   0.54870   0.89090   Biso      1.000     C          0.7130350000000001  
         C63       1.0000    0.46450   0.18700   0.86320   Biso      1.000     C          0.6247729999999999  
         C64       1.0000    0.53380   0.52760   0.70730   Biso      1.000     C          -0.025771           
         C65       1.0000    0.60980   0.57170   0.81910   Biso      1.000     C          -0.02504  
         C66       1.0000    0.50700   0.50670   0.77400   Biso      1.000     C          -0.10815899999999999          
         C67       1.0000    0.42590   0.45780   0.65840   Biso      1.000     C          0.596156  
         C68       1.0000    0.90190   0.77490   0.71100   Biso      1.000     C          0.09666799999999999           
         C69       1.0000    0.51950   0.19780   0.74240   Biso      1.000     C          -0.13525399999999999          
         C70       1.0000    0.34310   0.07420   0.66510   Biso      1.000     C          -0.172377           
         C71       1.0000    0.01950   0.19780   0.75760   Biso      1.000     C          -0.13525399999999999          
         C72       1.0000    0.84310   0.07420   0.83490   Biso      1.000     C          -0.172377           
         Er1       1.0000    0.30016   0.31522   0.96534   Biso      1.000     Er          2.10284   
         Er2       1.0000    0.19984   0.68478   0.46534   Biso      1.000     Er          2.102839  
         Er3       1.0000    0.69984   0.68478   0.03466   Biso      1.000     Er          2.10284   
         Er4       1.0000    0.80016   0.31522   0.53466   Biso      1.000     Er          2.10284   
         H1        1.0000    0.88940   0.74390   0.25110   Biso      1.000     H          0.130802  
         H2        1.0000    0.18540   0.94790   0.12230   Biso      1.000     H          0.141057  
         H3        1.0000    0.50710   0.86910   0.70770   Biso      1.000     H          0.148199  
         H4        1.0000    0.30720   0.70640   0.67080   Biso      1.000     H          0.126907  
         H5        1.0000    0.74960   0.33720   0.84310   Biso      1.000     H          0.40628600000000004           
         H6        1.0000    0.68540   0.94790   0.37770   Biso      1.000     H          0.141057  
         H7        1.0000    0.38940   0.74390   0.24890   Biso      1.000     H          0.130802  
         H8        1.0000    0.77140   0.98230   0.18580   Biso      1.000     H          0.139737  
         H9        1.0000    0.72860   0.01770   0.68580   Biso      1.000     H          0.139738  
         H10       1.0000    0.32030   0.36680   0.35810   Biso      1.000     H          0.132237  
         H11       1.0000    0.99290   0.13090   0.20770   Biso      1.000     H          0.148199  
         H12       1.0000    0.19280   0.29360   0.17080   Biso      1.000     H          0.126907  
         H13       1.0000    0.75040   0.66280   0.34310   Biso      1.000     H          0.40628600000000004           
         H14       1.0000    0.58040   0.55120   0.21190   Biso      1.000     H          0.136884  
         H15       1.0000    0.91960   0.44880   0.71190   Biso      1.000     H          0.136884  
         H16       1.0000    0.17970   0.63320   0.85810   Biso      1.000     H          0.132237  
         H17       1.0000    0.81460   0.05210   0.87770   Biso      1.000     H          0.141058  
         H18       1.0000    0.08040   0.55120   0.28810   Biso      1.000     H          0.136883  
         H19       1.0000    0.27140   0.98230   0.31420   Biso      1.000     H          0.139738  
         H20       1.0000    0.82030   0.36680   0.14190   Biso      1.000     H          0.132237  
         H21       1.0000    0.49290   0.13090   0.29230   Biso      1.000     H          0.1482    
         H22       1.0000    0.11060   0.25610   0.74890   Biso      1.000     H          0.130802  
         H23       1.0000    0.25040   0.66280   0.15690   Biso      1.000     H          0.406287  
         H24       1.0000    0.31460   0.05210   0.62230   Biso      1.000     H          0.141058  
         H25       1.0000    0.69280   0.29360   0.32920   Biso      1.000     H          0.126907  
         H26       1.0000    0.41960   0.44880   0.78810   Biso      1.000     H          0.136884  
         H27       1.0000    0.22860   0.01770   0.81420   Biso      1.000     H          0.139738  
         H28       1.0000    0.67970   0.63320   0.64190   Biso      1.000     H          0.13223800000000002           
         H29       1.0000    0.00710   0.86910   0.79230   Biso      1.000     H          0.1482    
         H30       1.0000    0.80720   0.70640   0.82920   Biso      1.000     H          0.126908  
         H31       1.0000    0.24960   0.33720   0.65690   Biso      1.000     H          0.40628600000000004           
         H32       1.0000    0.61060   0.25610   0.75110   Biso      1.000     H          0.130802  
         N1        1.0000    0.38660   0.07970   0.20430   Biso      1.000     N          0.141488  
         N2        1.0000    0.55650   0.21360   0.14680   Biso      1.000     N          -0.207556           
         N3        1.0000    0.42900   0.12560   0.14320   Biso      1.000     N          -0.13668  
         N4        1.0000    0.11340   0.92030   0.70430   Biso      1.000     N          0.141488  
         N5        1.0000    0.94350   0.78640   0.64680   Biso      1.000     N          -0.207556           
         N6        1.0000    0.07100   0.87440   0.64320   Biso      1.000     N          -0.136681           
         N7        1.0000    0.44350   0.78640   0.85320   Biso      1.000     N          -0.20755300000000002          
         N8        1.0000    0.57100   0.87440   0.85680   Biso      1.000     N          -0.136693           
         N9        1.0000    0.88660   0.07970   0.29570   Biso      1.000     N          0.141486  
         N10       1.0000    0.05650   0.21360   0.35320   Biso      1.000     N          -0.20755500000000002          
         N11       1.0000    0.92900   0.12560   0.35680   Biso      1.000     N          -0.136681           
         N12       1.0000    0.61340   0.92030   0.79570   Biso      1.000     N          0.141498  
         O1        1.0000    0.67840   0.60640   0.92990   Biso      1.000     O          -0.7318180000000001           
         O2        1.0000    0.31050   0.37830   0.68580   Biso      1.000     O          -0.5213810000000001           
         O3        1.0000    0.59370   0.23830   0.88000   Biso      1.000     O          -0.567887           
         O4        1.0000    0.56120   0.17950   0.56770   Biso      1.000     O          -0.657337           
         O5        1.0000    0.68400   0.32590   0.63690   Biso      1.000     O          -0.6144109999999999           
         O6        1.0000    0.45900   0.47430   0.90830   Biso      1.000     O          -0.7274649999999999           
         O7        1.0000    0.82160   0.39360   0.42990   Biso      1.000     O          -0.7318180000000001           
         O8        1.0000    0.44040   0.46990   0.60000   Biso      1.000     O          -0.505732           
         O9        1.0000    0.18950   0.62170   0.18580   Biso      1.000     O          -0.5213810000000001           
         O10       1.0000    0.90630   0.76170   0.38000   Biso      1.000     O          -0.5678880000000001           
         O11       1.0000    0.93880   0.82050   0.06770   Biso      1.000     O          -0.657337           
         O12       1.0000    0.81600   0.67410   0.13690   Biso      1.000     O          -0.6144109999999999           
         O13       1.0000    0.04100   0.52570   0.40830   Biso      1.000     O          -0.727464           
         O14       1.0000    0.35890   0.16780   0.90140   Biso      1.000     O          -0.720533           
         O15       1.0000    0.94040   0.46990   0.90000   Biso      1.000     O          -0.505732           
         O16       1.0000    0.95900   0.47430   0.59170   Biso      1.000     O          -0.727464           
         O17       1.0000    0.18400   0.32590   0.86310   Biso      1.000     O          -0.6144109999999999           
         O18       1.0000    0.06120   0.17950   0.93230   Biso      1.000     O          -0.657337           
         O19       1.0000    0.09370   0.23830   0.62000   Biso      1.000     O          -0.5678880000000001           
         O20       1.0000    0.81050   0.37830   0.81420   Biso      1.000     O          -0.5213810000000001           
         O21       1.0000    0.17840   0.60640   0.57010   Biso      1.000     O          -0.7318180000000001           
         O22       1.0000    0.55960   0.53010   0.40000   Biso      1.000     O          -0.505732           
         O23       1.0000    0.64110   0.83220   0.09860   Biso      1.000     O          -0.720533           
         O24       1.0000    0.54100   0.52570   0.09170   Biso      1.000     O          -0.727464           
         O25       1.0000    0.31600   0.67410   0.36310   Biso      1.000     O          -0.6144109999999999           
         O26       1.0000    0.43880   0.82050   0.43230   Biso      1.000     O          -0.657338           
         O27       1.0000    0.40630   0.76170   0.12000   Biso      1.000     O          -0.5678880000000001           
         O28       1.0000    0.68950   0.62170   0.31420   Biso      1.000     O          -0.5213810000000001           
         O29       1.0000    0.32160   0.39360   0.07010   Biso      1.000     O          -0.7318180000000001           
         O30       1.0000    0.14110   0.83220   0.40140   Biso      1.000     O          -0.720533           
         O31       1.0000    0.85890   0.16780   0.59860   Biso      1.000     O          -0.720533           
         O32       1.0000    0.05960   0.53010   0.10000   Biso      1.000     O          -0.505733 