
##########################################################################
#               Crystallographic Information Format file
#               Produced by PyCifRW module
#
#  This is a CIF file.  CIF has been adopted by the International
#  Union of Crystallography as the standard for data archiving and
#  transmission.
#
#  For information on this file format, follow the CIF links at
#  http://www.iucr.org
##########################################################################

data_image0

_cell_length_a                          17.0713
_cell_length_b                          17.0713
_cell_length_c                          17.0713
_cell_angle_alpha                       105.83
_cell_angle_beta                        105.83
_cell_angle_gamma                       117.029
_symmetry_space_group_name_H-M          'P 1'
_symmetry_int_tables_number             1
loop_
  _symmetry_equiv_pos_as_xyz
         'x, y, z' 
loop_
  _atom_site_label
  _atom_site_occupancy
  _atom_site_fract_x
  _atom_site_fract_y
  _atom_site_fract_z
  _atom_site_thermal_displace_type
  _atom_site_B_iso_or_equiv
  _atom_site_type_symbol
  _atom_site_charge
         C1        1.0000    0.83500   0.65510   0.36430   Biso      1.000     C          0.55684   
         C2        1.0000    0.09850   0.78450   0.26700   Biso      1.000     C          0.6107899999999999  
         C3        1.0000    0.11500   0.49310   0.01430   Biso      1.000     C          0.611611  
         C4        1.0000    0.03700   0.88730   0.32450   Biso      1.000     C          -0.095207           
         C5        1.0000    0.03650   0.80210   0.30860   Biso      1.000     C          -0.011193           
         C6        1.0000    0.97190   0.72800   0.32410   Biso      1.000     C          -0.10843299999999999          
         C7        1.0000    0.90830   0.73900   0.35430   Biso      1.000     C          -0.004782           
         C8        1.0000    0.91030   0.82550   0.37160   Biso      1.000     C          -0.102855           
         C9        1.0000    0.97570   0.89990   0.35780   Biso      1.000     C          -0.023262           
         C10       1.0000    0.28450   0.59850   0.26700   Biso      1.000     C          0.6107899999999999  
         C11       1.0000    0.15510   0.33500   0.36430   Biso      1.000     C          0.55684   
         C12       1.0000    0.99310   0.61500   0.01430   Biso      1.000     C          0.611611  
         C13       1.0000    0.38730   0.53700   0.32450   Biso      1.000     C          -0.095206           
         C14       1.0000    0.30210   0.53650   0.30860   Biso      1.000     C          -0.011193           
         C15       1.0000    0.22800   0.47190   0.32410   Biso      1.000     C          -0.10843399999999999          
         C16       1.0000    0.23900   0.40830   0.35430   Biso      1.000     C          -0.004782           
         C17       1.0000    0.32550   0.41030   0.37160   Biso      1.000     C          -0.102855           
         C18       1.0000    0.33150   0.01750   0.73300   Biso      1.000     C          0.610349  
         C19       1.0000    0.97070   0.79080   0.63570   Biso      1.000     C          0.556948  
         C20       1.0000    0.60070   0.97880   0.98570   Biso      1.000     C          0.612306  
         C21       1.0000    0.21250   0.06280   0.67550   Biso      1.000     C          -0.09536599999999999          
         C22       1.0000    0.22790   0.99350   0.69140   Biso      1.000     C          -0.010041           
         C23       1.0000    0.14780   0.90390   0.67590   Biso      1.000     C          -0.123971           
         C24       1.0000    0.05400   0.88470   0.64570   Biso      1.000     C          -0.005509           
         C25       1.0000    0.54210   0.61790   0.64220   Biso      1.000     C          -0.023181           
         C26       1.0000    0.03870   0.95390   0.62840   Biso      1.000     C          -0.10248399999999999          
         C27       1.0000    0.45390   0.53870   0.62840   Biso      1.000     C          -0.10248399999999999          
         C28       1.0000    0.40390   0.64780   0.67590   Biso      1.000     C          -0.123971           
         C29       1.0000    0.83150   0.09850   0.31400   Biso      1.000     C          0.610355  
         C30       1.0000    0.47070   0.83500   0.17990   Biso      1.000     C          0.5577949999999999  
         C31       1.0000    0.10070   0.11500   0.62190   Biso      1.000     C          0.6122989999999999  
         C32       1.0000    0.71250   0.03700   0.14970   Biso      1.000     C          -0.095362           
         C33       1.0000    0.72790   0.03650   0.23440   Biso      1.000     C          -0.009997           
         C34       1.0000    0.64780   0.97190   0.24390   Biso      1.000     C          -0.12299500000000001          
         C35       1.0000    0.55400   0.90830   0.16930   Biso      1.000     C          -0.008546           
         C36       1.0000    0.53870   0.91030   0.08480   Biso      1.000     C          -0.10153999999999999          
         C37       1.0000    0.61790   0.97570   0.07580   Biso      1.000     C          -0.023131           
         C38       1.0000    0.78450   0.51750   0.68600   Biso      1.000     C          0.610803  
         C39       1.0000    0.65510   0.29080   0.82010   Biso      1.000     C          0.557758  
         C40       1.0000    0.49310   0.47880   0.37810   Biso      1.000     C          0.6122890000000001  
         C41       1.0000    0.88730   0.56280   0.85030   Biso      1.000     C          -0.095924           
         C42       1.0000    0.80210   0.49350   0.76560   Biso      1.000     C          -0.011184999999999999         
         C43       1.0000    0.72800   0.40390   0.75610   Biso      1.000     C          -0.10746900000000001          
         C44       1.0000    0.73900   0.38470   0.83070   Biso      1.000     C          -0.007914000000000001         
         C45       1.0000    0.82550   0.45390   0.91520   Biso      1.000     C          -0.10266900000000001          
         C46       1.0000    0.89990   0.54210   0.92420   Biso      1.000     C          -0.020866           
         C47       1.0000    0.51750   0.83150   0.73300   Biso      1.000     C          0.610349  
         C48       1.0000    0.29080   0.47070   0.63570   Biso      1.000     C          0.556955  
         C49       1.0000    0.47880   0.10070   0.98570   Biso      1.000     C          0.612306  
         C50       1.0000    0.56280   0.71250   0.67550   Biso      1.000     C          -0.095367           
         C51       1.0000    0.49350   0.72790   0.69140   Biso      1.000     C          -0.01004  
         C52       1.0000    0.38470   0.55400   0.64570   Biso      1.000     C          -0.005511           
         C53       1.0000    0.11790   0.04210   0.64220   Biso      1.000     C          -0.023181           
         C54       1.0000    0.39990   0.47570   0.35780   Biso      1.000     C          -0.023262           
         C55       1.0000    0.33500   0.97070   0.17990   Biso      1.000     C          0.557794  
         C56       1.0000    0.59850   0.33150   0.31400   Biso      1.000     C          0.610356  
         C57       1.0000    0.04210   0.39990   0.92420   Biso      1.000     C          -0.020866           
         C58       1.0000    0.95390   0.32550   0.91520   Biso      1.000     C          -0.10266900000000001          
         C59       1.0000    0.88470   0.23900   0.83070   Biso      1.000     C          -0.007914000000000001         
         C60       1.0000    0.99350   0.30210   0.76560   Biso      1.000     C          -0.011184999999999999         
         C61       1.0000    0.06280   0.38730   0.85030   Biso      1.000     C          -0.095924           
         C62       1.0000    0.97880   0.99310   0.37810   Biso      1.000     C          0.612288  
         C63       1.0000    0.79080   0.15510   0.82010   Biso      1.000     C          0.5577529999999999  
         C64       1.0000    0.90390   0.22800   0.75610   Biso      1.000     C          -0.10746900000000001          
         C65       1.0000    0.01750   0.28450   0.68600   Biso      1.000     C          0.6108020000000001  
         C66       1.0000    0.47570   0.11790   0.07580   Biso      1.000     C          -0.02313  
         C67       1.0000    0.41030   0.03870   0.08480   Biso      1.000     C          -0.10153999999999999          
         C68       1.0000    0.40830   0.05400   0.16930   Biso      1.000     C          -0.008546           
         C69       1.0000    0.47190   0.14780   0.24390   Biso      1.000     C          -0.122994           
         C70       1.0000    0.53650   0.22790   0.23440   Biso      1.000     C          -0.009998           
         C71       1.0000    0.53700   0.21250   0.14970   Biso      1.000     C          -0.095362           
         C72       1.0000    0.61500   0.60070   0.62190   Biso      1.000     C          0.6123    
         H1        1.0000    0.17150   0.47170   0.31420   Biso      1.000     H          0.134691  
         H2        1.0000    0.33290   0.36780   0.39230   Biso      1.000     H          0.134192  
         H3        1.0000    0.26580   0.12290   0.68710   Biso      1.000     H          0.137129  
         H4        1.0000    0.15750   0.85730   0.68580   Biso      1.000     H          0.150566  
         H5        1.0000    0.12290   0.43580   0.85710   Biso      1.000     H          0.13710999999999998           
         H6        1.0000    0.47170   0.15750   0.30020   Biso      1.000     H          0.150581  
         H7        1.0000    0.36780   0.97550   0.03490   Biso      1.000     H          0.134241  
         H8        1.0000    0.94060   0.33290   0.96510   Biso      1.000     H          0.134211  
         H9        1.0000    0.85730   0.17150   0.69980   Biso      1.000     H          0.134702  
         H10       1.0000    0.43580   0.57870   0.31290   Biso      1.000     H          0.137132  
         H11       1.0000    0.57870   0.26580   0.14290   Biso      1.000     H          0.13713399999999998           
         H12       1.0000    0.86780   0.83290   0.39230   Biso      1.000     H          0.134192  
         H13       1.0000    0.97550   0.94060   0.60770   Biso      1.000     H          0.134221  
         H14       1.0000    0.07870   0.93580   0.31290   Biso      1.000     H          0.137132  
         H15       1.0000    0.44060   0.47550   0.60770   Biso      1.000     H          0.134221  
         H16       1.0000    0.35730   0.65750   0.68580   Biso      1.000     H          0.150565  
         H17       1.0000    0.62290   0.76580   0.68710   Biso      1.000     H          0.137129  
         H18       1.0000    0.83290   0.44060   0.96510   Biso      1.000     H          0.134211  
         H19       1.0000    0.67150   0.35730   0.69980   Biso      1.000     H          0.134702  
         H20       1.0000    0.93580   0.62290   0.85710   Biso      1.000     H          0.13710999999999998           
         H21       1.0000    0.47550   0.86780   0.03490   Biso      1.000     H          0.134241  
         H22       1.0000    0.65750   0.97170   0.30020   Biso      1.000     H          0.150581  
         H23       1.0000    0.76580   0.07870   0.14290   Biso      1.000     H          0.13713399999999998           
         H24       1.0000    0.97170   0.67150   0.31420   Biso      1.000     H          0.134691  
         O1        1.0000    0.28810   0.39420   0.63470   Biso      1.000     O          -0.502962           
         O2        1.0000    0.41890   0.01520   0.92030   Biso      1.000     O          -0.57334  
         O3        1.0000    0.54040   0.17470   0.98210   Biso      1.000     O          -0.5030100000000001           
         O4        1.0000    0.12430   0.83040   0.22090   Biso      1.000     O          -0.523579           
         O5        1.0000    0.11730   0.72520   0.28090   Biso      1.000     O          -0.508009           
         O6        1.0000    0.33040   0.62430   0.22090   Biso      1.000     O          -0.523579           
         O7        1.0000    0.75950   0.65340   0.36530   Biso      1.000     O          -0.503054           
         O8        1.0000    0.09490   0.49860   0.07970   Biso      1.000     O          -0.573442           
         O9        1.0000    0.19260   0.55830   0.01790   Biso      1.000     O          -0.503034           
         O10       1.0000    0.22390   0.48010   0.63060   Biso      1.000     O          -0.392289           
         O11       1.0000    0.22520   0.61730   0.28090   Biso      1.000     O          -0.508009           
         O12       1.0000    0.09330   0.34950   0.36940   Biso      1.000     O          -0.39165500000000003          
         O13       1.0000    0.84950   0.59330   0.36940   Biso      1.000     O          -0.391654           
         O14       1.0000    0.44430   0.83640   0.71910   Biso      1.000     O          -0.508758           
         O15       1.0000    0.90340   0.12430   0.29390   Biso      1.000     O          -0.523516           
         O16       1.0000    0.55830   0.54040   0.36570   Biso      1.000     O          -0.502991           
         O17       1.0000    0.49860   0.41890   0.40370   Biso      1.000     O          -0.573317           
         O18       1.0000    0.73111   0.55109   0.50000   Biso      1.000     O          -0.6443369999999999           
         O19       1.0000    0.05109   0.23111   0.50000   Biso      1.000     O          -0.644333           
         O20       1.0000    0.83640   0.11730   0.39210   Biso      1.000     O          -0.5087689999999999           
         O21       1.0000    0.48010   0.84950   0.25620   Biso      1.000     O          -0.392227           
         O22       1.0000    0.39420   0.75950   0.10610   Biso      1.000     O          -0.5028520000000001           
         O23       1.0000    0.01520   0.09490   0.59630   Biso      1.000     O          -0.573405           
         O24       1.0000    0.17470   0.19260   0.63430   Biso      1.000     O          -0.503008           
         O25       1.0000    0.83040   0.60950   0.70610   Biso      1.000     O          -0.5235810000000001           
         O26       1.0000    0.72520   0.44430   0.60790   Biso      1.000     O          -0.50797  
         O27       1.0000    0.59330   0.22390   0.74380   Biso      1.000     O          -0.391599           
         O28       1.0000    0.15340   0.25950   0.36530   Biso      1.000     O          -0.503054           
         O29       1.0000    0.65340   0.28810   0.89390   Biso      1.000     O          -0.503026           
         O30       1.0000    0.60950   0.90340   0.77910   Biso      1.000     O          -0.523513           
         O31       1.0000    0.99860   0.59490   0.07970   Biso      1.000     O          -0.573442           
         O32       1.0000    0.23111   0.73111   0.18002   Biso      1.000     O          -0.644302           
         O33       1.0000    0.40340   0.10950   0.77910   Biso      1.000     O          -0.523513           
         O34       1.0000    0.55109   0.05109   0.81998   Biso      1.000     O          -0.6443   
         O35       1.0000    0.04040   0.05830   0.36570   Biso      1.000     O          -0.5029899999999999           
         O36       1.0000    0.91890   0.99860   0.40370   Biso      1.000     O          -0.573315           
         O37       1.0000    0.05830   0.69260   0.01790   Biso      1.000     O          -0.503034           
         O38       1.0000    0.72390   0.09330   0.74380   Biso      1.000     O          -0.391597           
         O39       1.0000    0.94430   0.22520   0.60790   Biso      1.000     O          -0.507971           
         O40       1.0000    0.10950   0.33040   0.70610   Biso      1.000     O          -0.5235810000000001           
         O41       1.0000    0.69260   0.67470   0.63430   Biso      1.000     O          -0.503009           
         O42       1.0000    0.59490   0.51520   0.59630   Biso      1.000     O          -0.573407           
         O43       1.0000    0.78810   0.15340   0.89390   Biso      1.000     O          -0.503023           
         O44       1.0000    0.34950   0.98010   0.25620   Biso      1.000     O          -0.392225           
         O45       1.0000    0.61730   0.33640   0.39210   Biso      1.000     O          -0.508768           
         O46       1.0000    0.62430   0.40340   0.29390   Biso      1.000     O          -0.523516           
         O47       1.0000    0.67470   0.04040   0.98210   Biso      1.000     O          -0.5030100000000001           
         O48       1.0000    0.51520   0.91890   0.92030   Biso      1.000     O          -0.573339           
         O49       1.0000    0.89420   0.78810   0.63470   Biso      1.000     O          -0.502962           
         O50       1.0000    0.98010   0.72390   0.63060   Biso      1.000     O          -0.392281           
         O51       1.0000    0.33640   0.94430   0.71910   Biso      1.000     O          -0.508758           
         O52       1.0000    0.25950   0.89420   0.10610   Biso      1.000     O          -0.502851           
         Zn1       1.0000    0.67576   0.53845   0.37705   Biso      1.000     Zn          0.961259  
         Zn2       1.0000    0.53845   0.16140   0.86269   Biso      1.000     Zn          0.9612700000000001  
         Zn3       1.0000    0.29871   0.67576   0.13731   Biso      1.000     Zn          0.9613010000000001  
         Zn4       1.0000    0.17576   0.79871   0.13731   Biso      1.000     Zn          0.9613    
         Zn5       1.0000    0.66140   0.03845   0.86269   Biso      1.000     Zn          0.9612700000000001  
         Zn6       1.0000    0.61582   0.42966   0.50000   Biso      1.000     Zn          1.047102  
         Zn7       1.0000    0.03845   0.17576   0.37705   Biso      1.000     Zn          0.961258  
         Zn8       1.0000    0.92966   0.11582   0.50000   Biso      1.000     Zn          1.047101  
         Zn9       1.0000    0.42966   0.92966   0.81384   Biso      1.000     Zn          1.0472709999999998  
         Zn10      1.0000    0.11582   0.61582   0.18616   Biso      1.000     Zn          1.046935  
         Zn11      1.0000    0.79871   0.66140   0.62295   Biso      1.000     Zn          0.9613370000000001  
         Zn12      1.0000    0.16140   0.29871   0.62295   Biso      1.000     Zn          0.961335 