
##########################################################################
#               Crystallographic Information Format file
#               Produced by PyCifRW module
#
#  This is a CIF file.  CIF has been adopted by the International
#  Union of Crystallography as the standard for data archiving and
#  transmission.
#
#  For information on this file format, follow the CIF links at
#  http://www.iucr.org
##########################################################################

data_image0

_cell_length_a                          9.2553
_cell_length_b                          9.3537
_cell_length_c                          13.8735
_cell_angle_alpha                       109.701
_cell_angle_beta                        101.758
_cell_angle_gamma                       90
_symmetry_space_group_name_H-M          'P 1'
_symmetry_int_tables_number             1
loop_
  _symmetry_equiv_pos_as_xyz
         'x, y, z' 
loop_
  _atom_site_label
  _atom_site_occupancy
  _atom_site_fract_x
  _atom_site_fract_y
  _atom_site_fract_z
  _atom_site_thermal_displace_type
  _atom_site_B_iso_or_equiv
  _atom_site_type_symbol
  _atom_site_charge
         C1        1.0000    0.60120   0.39590   0.70420   Biso      1.000     C          0.083264  
         C2        1.0000    0.82190   0.83460   0.19140   Biso      1.000     C          0.086892  
         C3        1.0000    0.73720   0.71240   0.11200   Biso      1.000     C          -0.212398           
         C4        1.0000    0.73630   0.57390   0.12860   Biso      1.000     C          0.197383  
         C5        1.0000    0.81740   0.56250   0.22140   Biso      1.000     C          -0.178476           
         C6        1.0000    0.89880   0.69170   0.29580   Biso      1.000     C          0.083748  
         C7        1.0000    0.64687   0.43600   0.04600   Biso      1.000     C          -0.283928           
         C8        1.0000    0.73040   0.95520   0.69840   Biso      1.000     C          0.533993  
         C9        1.0000    0.72500   0.81050   0.60800   Biso      1.000     C          0.15099300000000002           
         C10       1.0000    0.67810   0.64320   0.80860   Biso      1.000     C          0.089022  
         C11       1.0000    0.76280   0.60040   0.88800   Biso      1.000     C          -0.21486599999999997          
         C12       1.0000    0.76370   0.44530   0.87140   Biso      1.000     C          0.199262  
         C13       1.0000    0.68260   0.34110   0.77860   Biso      1.000     C          -0.17898499999999998          
         C14       1.0000    0.85313   0.39000   0.95400   Biso      1.000     C          -0.283912           
         C15       1.0000    0.23040   0.74320   0.69840   Biso      1.000     C          0.535522  
         C16       1.0000    0.22500   0.79750   0.60800   Biso      1.000     C          0.150488  
         C17       1.0000    0.17810   0.16540   0.80860   Biso      1.000     C          0.087096  
         C18       1.0000    0.26280   0.28760   0.88800   Biso      1.000     C          -0.212527           
         C19       1.0000    0.25000   0.68000   0.00000   Biso      1.000     C          -0.117307           
         C20       1.0000    0.75000   0.32000   0.00000   Biso      1.000     C          -0.117297           
         C21       1.0000    0.14687   0.61000   0.04600   Biso      1.000     C          -0.283918           
         C22       1.0000    0.39880   0.60410   0.29580   Biso      1.000     C          0.08344   
         C23       1.0000    0.31740   0.65890   0.22140   Biso      1.000     C          -0.178926           
         C24       1.0000    0.23630   0.55470   0.12860   Biso      1.000     C          0.19935899999999998           
         C25       1.0000    0.76960   0.25680   0.30160   Biso      1.000     C          0.535624  
         C26       1.0000    0.23720   0.39960   0.11200   Biso      1.000     C          -0.21461799999999998          
         C27       1.0000    0.27500   0.18950   0.39200   Biso      1.000     C          0.149792  
         C28       1.0000    0.26960   0.04480   0.30160   Biso      1.000     C          0.534112  
         C29       1.0000    0.35313   0.56400   0.95400   Biso      1.000     C          -0.283904           
         C30       1.0000    0.10120   0.30830   0.70420   Biso      1.000     C          0.083562  
         C31       1.0000    0.18260   0.43750   0.77860   Biso      1.000     C          -0.178399           
         C32       1.0000    0.26370   0.42610   0.87140   Biso      1.000     C          0.197364  
         C33       1.0000    0.32190   0.35680   0.19140   Biso      1.000     C          0.088891  
         C34       1.0000    0.77500   0.20250   0.39200   Biso      1.000     C          0.149303  
         Cu1       1.0000    0.03860   0.02030   0.38460   Biso      1.000     Cu          0.648127  
         Cu2       1.0000    0.96140   0.97970   0.61540   Biso      1.000     Cu          0.6491939999999999  
         Cu3       1.0000    0.46140   0.63570   0.61540   Biso      1.000     Cu          0.64956   
         Cu4       1.0000    0.53860   0.36430   0.38460   Biso      1.000     Cu          0.647389  
         H1        1.0000    0.30901   0.78189   0.04674   Biso      1.000     H          0.096877  
         H2        1.0000    0.82334   0.93081   0.18072   Biso      1.000     H          0.094685  
         H3        1.0000    0.68184   0.72310   0.04864   Biso      1.000     H          0.133164  
         H4        1.0000    0.81792   0.46746   0.23376   Biso      1.000     H          0.138346  
         H5        1.0000    0.95505   0.68382   0.35980   Biso      1.000     H          0.085938  
         H6        1.0000    0.58907   0.46518   0.99258   Biso      1.000     H          0.11312799999999999           
         H7        1.0000    0.58465   0.39326   0.07648   Biso      1.000     H          0.134198  
         H8        1.0000    0.80901   0.26485   0.04674   Biso      1.000     H          0.096708  
         H9        1.0000    0.67666   0.75009   0.81928   Biso      1.000     H          0.094068  
         H10       1.0000    0.81816   0.67446   0.95136   Biso      1.000     H          0.133414  
         H11       1.0000    0.68208   0.23370   0.76624   Biso      1.000     H          0.138282  
         H12       1.0000    0.54495   0.32402   0.64020   Biso      1.000     H          0.08621799999999999           
         H13       1.0000    0.91093   0.47260   0.00742   Biso      1.000     H          0.11301099999999999           
         H14       1.0000    0.08465   0.68322   0.07648   Biso      1.000     H          0.133965  
         H15       1.0000    0.69099   0.21811   0.95326   Biso      1.000     H          0.09694   
         H16       1.0000    0.91535   0.31678   0.92352   Biso      1.000     H          0.13397699999999998           
         H17       1.0000    0.08907   0.52740   0.99258   Biso      1.000     H          0.11308800000000001           
         H18       1.0000    0.45505   0.67598   0.35980   Biso      1.000     H          0.08640700000000001           
         H19       1.0000    0.18184   0.32554   0.04864   Biso      1.000     H          0.133503  
         H20       1.0000    0.32334   0.24991   0.18072   Biso      1.000     H          0.094139  
         H21       1.0000    0.19099   0.73515   0.95326   Biso      1.000     H          0.09678400000000001           
         H22       1.0000    0.31792   0.76630   0.23376   Biso      1.000     H          0.1383    
         H23       1.0000    0.41093   0.53482   0.00742   Biso      1.000     H          0.11308299999999999           
         H24       1.0000    0.04495   0.31618   0.64020   Biso      1.000     H          0.085876  
         H25       1.0000    0.18208   0.53254   0.76624   Biso      1.000     H          0.138351  
         H26       1.0000    0.31816   0.27690   0.95136   Biso      1.000     H          0.13311199999999998           
         H27       1.0000    0.17666   0.06919   0.81928   Biso      1.000     H          0.094703  
         H28       1.0000    0.41535   0.60674   0.92352   Biso      1.000     H          0.134277  
         N1        1.0000    0.29360   0.81730   0.47460   Biso      1.000     N          -0.024956           
         N2        1.0000    0.40200   0.45460   0.28200   Biso      1.000     N          -0.204086           
         N3        1.0000    0.36600   0.31350   0.42700   Biso      1.000     N          -0.210369           
         N4        1.0000    0.32280   0.40790   0.50980   Biso      1.000     N          -0.085583           
         N5        1.0000    0.20640   0.34270   0.52540   Biso      1.000     N          -0.023780000000000003         
         N6        1.0000    0.17580   0.20440   0.45080   Biso      1.000     N          -0.22433899999999998          
         N7        1.0000    0.09800   0.17260   0.71800   Biso      1.000     N          -0.204243           
         N8        1.0000    0.13400   0.88650   0.57300   Biso      1.000     N          -0.212325           
         N9        1.0000    0.17720   0.89810   0.49020   Biso      1.000     N          -0.084409           
         N10       1.0000    0.32420   0.75360   0.54920   Biso      1.000     N          -0.226113           
         N11       1.0000    0.79360   0.65730   0.47460   Biso      1.000     N          -0.023944           
         N12       1.0000    0.63400   0.68650   0.57300   Biso      1.000     N          -0.211659           
         N13       1.0000    0.67720   0.59210   0.49020   Biso      1.000     N          -0.08521799999999999          
         N14       1.0000    0.82420   0.79560   0.54920   Biso      1.000     N          -0.226794           
         N15       1.0000    0.90200   0.82740   0.28200   Biso      1.000     N          -0.204353           
         N16       1.0000    0.86600   0.11350   0.42700   Biso      1.000     N          -0.210973           
         N17       1.0000    0.82280   0.10190   0.50980   Biso      1.000     N          -0.084912           
         N18       1.0000    0.70640   0.18270   0.52540   Biso      1.000     N          -0.024821           
         N19       1.0000    0.67580   0.24640   0.45080   Biso      1.000     N          -0.22286599999999998          
         N20       1.0000    0.59800   0.54540   0.71800   Biso      1.000     N          -0.204983           
         O1        1.0000    0.34500   0.67050   0.71100   Biso      1.000     O          -0.503963           
         O2        1.0000    0.13360   0.77180   0.74960   Biso      1.000     O          -0.511472           
         O3        1.0000    0.84500   0.04050   0.71100   Biso      1.000     O          -0.503462           
         O4        1.0000    0.36640   0.02220   0.25040   Biso      1.000     O          -0.51097  
         O5        1.0000    0.65500   0.32950   0.28900   Biso      1.000     O          -0.503109           
         O6        1.0000    0.86640   0.22820   0.25040   Biso      1.000     O          -0.51158  
         O7        1.0000    0.63360   0.97780   0.74960   Biso      1.000     O          -0.511087           
         O8        1.0000    0.15500   0.95950   0.28900   Biso      1.000     O          -0.502089 