
##########################################################################
#               Crystallographic Information Format file
#               Produced by PyCifRW module
#
#  This is a CIF file.  CIF has been adopted by the International
#  Union of Crystallography as the standard for data archiving and
#  transmission.
#
#  For information on this file format, follow the CIF links at
#  http://www.iucr.org
##########################################################################

data_image0

_cell_length_a                          9.2741
_cell_length_b                          9.3899
_cell_length_c                          15.0567
_cell_angle_alpha                       108.169
_cell_angle_beta                        92.5244
_cell_angle_gamma                       90
_symmetry_space_group_name_H-M          'P 1'
_symmetry_int_tables_number             1
loop_
  _symmetry_equiv_pos_as_xyz
         'x, y, z' 
loop_
  _atom_site_label
  _atom_site_occupancy
  _atom_site_fract_x
  _atom_site_fract_y
  _atom_site_fract_z
  _atom_site_thermal_displace_type
  _atom_site_B_iso_or_equiv
  _atom_site_type_symbol
  _atom_site_charge
         C1        1.0000    0.35960   0.79490   0.59360   Biso      1.000     C          0.145239  
         C2        1.0000    0.04260   0.36910   0.13020   Biso      1.000     C          -0.21639499999999998          
         C3        1.0000    0.10840   0.50900   0.14780   Biso      1.000     C          0.190903  
         C4        1.0000    0.97620   0.33420   0.20140   Biso      1.000     C          0.09927899999999999           
         C5        1.0000    0.18040   0.55650   0.07360   Biso      1.000     C          -0.24218  
         C6        1.0000    0.14040   0.20130   0.40640   Biso      1.000     C          0.14410699999999999           
         C7        1.0000    0.09920   0.06760   0.32440   Biso      1.000     C          0.550303  
         C8        1.0000    0.39780   0.36890   0.76120   Biso      1.000     C          -0.184944           
         C9        1.0000    0.46320   0.25840   0.69460   Biso      1.000     C          0.095724  
         C10       1.0000    0.45740   0.23890   0.86980   Biso      1.000     C          -0.214981           
         C11       1.0000    0.39160   0.36120   0.85220   Biso      1.000     C          0.190889  
         C12       1.0000    0.52380   0.13280   0.79860   Biso      1.000     C          0.10093099999999999           
         C13       1.0000    0.31960   0.48290   0.92640   Biso      1.000     C          -0.243112           
         C14       1.0000    0.40080   0.74320   0.67560   Biso      1.000     C          0.55099   
         C15       1.0000    0.89780   0.39230   0.76120   Biso      1.000     C          -0.185271           
         C16       1.0000    0.96320   0.43620   0.69460   Biso      1.000     C          0.095612  
         C17       1.0000    0.95740   0.63090   0.86980   Biso      1.000     C          -0.21643400000000002          
         C18       1.0000    0.89160   0.49100   0.85220   Biso      1.000     C          0.190923  
         C19       1.0000    0.75000   0.56910   0.00000   Biso      1.000     C          -0.172578           
         C20       1.0000    0.25000   0.43090   0.00000   Biso      1.000     C          -0.172586           
         C21       1.0000    0.59920   0.25680   0.32440   Biso      1.000     C          0.551141  
         C22       1.0000    0.64040   0.20510   0.40640   Biso      1.000     C          0.144571  
         C23       1.0000    0.68040   0.51710   0.07360   Biso      1.000     C          -0.24312399999999998          
         C24       1.0000    0.47620   0.86720   0.20140   Biso      1.000     C          0.10089   
         C25       1.0000    0.10220   0.60770   0.23880   Biso      1.000     C          -0.185319           
         C26       1.0000    0.60840   0.63880   0.14780   Biso      1.000     C          0.190959  
         C27       1.0000    0.53680   0.74160   0.30540   Biso      1.000     C          0.09576699999999999           
         C28       1.0000    0.60220   0.63110   0.23880   Biso      1.000     C          -0.184861           
         C29       1.0000    0.90080   0.93240   0.67560   Biso      1.000     C          0.550136  
         C30       1.0000    0.85960   0.79870   0.59360   Biso      1.000     C          0.14487   
         C31       1.0000    0.81960   0.44350   0.92640   Biso      1.000     C          -0.242166           
         C32       1.0000    0.02380   0.66580   0.79860   Biso      1.000     C          0.09937   
         C33       1.0000    0.54260   0.76110   0.13020   Biso      1.000     C          -0.214856           
         C34       1.0000    0.03680   0.56380   0.30540   Biso      1.000     C          0.095689  
         Cu1       1.0000    0.87996   0.36179   0.38492   Biso      1.000     Cu          0.6385529999999999  
         Cu2       1.0000    0.12004   0.63821   0.61508   Biso      1.000     Cu          0.638123  
         Cu3       1.0000    0.62004   0.97687   0.61508   Biso      1.000     Cu          0.638764  
         Cu4       1.0000    0.37996   0.02313   0.38492   Biso      1.000     Cu          0.638552  
         H1        1.0000    0.82240   0.64520   0.03040   Biso      1.000     H          0.098406  
         H2        1.0000    0.14310   0.70440   0.25400   Biso      1.000     H          0.140207  
         H3        1.0000    0.03560   0.63170   0.36640   Biso      1.000     H          0.08769   
         H4        1.0000    0.04340   0.29860   0.07020   Biso      1.000     H          0.130144  
         H5        1.0000    0.93070   0.24000   0.18800   Biso      1.000     H          0.10517699999999999           
         H6        1.0000    0.10830   0.60340   0.04260   Biso      1.000     H          0.11914100000000001           
         H7        1.0000    0.25440   0.63270   0.10400   Biso      1.000     H          0.116726  
         H8        1.0000    0.32240   0.38520   0.03040   Biso      1.000     H          0.098764  
         H9        1.0000    0.35690   0.45040   0.74600   Biso      1.000     H          0.139772  
         H10       1.0000    0.46440   0.26530   0.63360   Biso      1.000     H          0.08828   
         H11       1.0000    0.45660   0.22840   0.92980   Biso      1.000     H          0.128925  
         H12       1.0000    0.56930   0.05200   0.81200   Biso      1.000     H          0.104519  
         H13       1.0000    0.39170   0.56080   0.95740   Biso      1.000     H          0.118817  
         H14       1.0000    0.75440   0.47130   0.10400   Biso      1.000     H          0.117728  
         H15       1.0000    0.17760   0.35480   0.96960   Biso      1.000     H          0.09842200000000001           
         H16       1.0000    0.24560   0.52870   0.89600   Biso      1.000     H          0.117725  
         H17       1.0000    0.60830   0.43920   0.04260   Biso      1.000     H          0.118868  
         H18       1.0000    0.43070   0.94800   0.18800   Biso      1.000     H          0.10456199999999999           
         H19       1.0000    0.53560   0.73470   0.36640   Biso      1.000     H          0.088385  
         H20       1.0000    0.64310   0.54960   0.25400   Biso      1.000     H          0.139756  
         H21       1.0000    0.67760   0.61480   0.96960   Biso      1.000     H          0.098785  
         H22       1.0000    0.54340   0.77160   0.07020   Biso      1.000     H          0.128975  
         H23       1.0000    0.89170   0.39660   0.95740   Biso      1.000     H          0.119145  
         H24       1.0000    0.06930   0.76000   0.81200   Biso      1.000     H          0.10523800000000001           
         H25       1.0000    0.95660   0.70140   0.92980   Biso      1.000     H          0.130171  
         H26       1.0000    0.96440   0.36830   0.63360   Biso      1.000     H          0.08766900000000001           
         H27       1.0000    0.85690   0.29560   0.74600   Biso      1.000     H          0.140295  
         H28       1.0000    0.74560   0.36730   0.89600   Biso      1.000     H          0.116774  
         N1        1.0000    0.92770   0.67232   0.55684   Biso      1.000     N          -0.201966           
         N2        1.0000    0.76900   0.24507   0.44994   Biso      1.000     N          -0.22046999999999997          
         N3        1.0000    0.77970   0.17905   0.51710   Biso      1.000     N          -0.041760000000000005         
         N4        1.0000    0.65920   0.10113   0.51246   Biso      1.000     N          -0.07295399999999999          
         N5        1.0000    0.57230   0.11548   0.44316   Biso      1.000     N          -0.20005  
         N6        1.0000    0.47400   0.85977   0.28854   Biso      1.000     N          -0.202965           
         N7        1.0000    0.73100   0.79513   0.55006   Biso      1.000     N          -0.22025  
         N8        1.0000    0.72030   0.66195   0.48290   Biso      1.000     N          -0.043418           
         N9        1.0000    0.84080   0.58867   0.48754   Biso      1.000     N          -0.071113           
         N10       1.0000    0.02600   0.57123   0.71146   Biso      1.000     N          -0.200767           
         N11       1.0000    0.42770   0.88452   0.55684   Biso      1.000     N          -0.201626           
         N12       1.0000    0.22030   0.82095   0.48290   Biso      1.000     N          -0.041873           
         N13       1.0000    0.34080   0.89887   0.48754   Biso      1.000     N          -0.073296           
         N14       1.0000    0.52600   0.14023   0.71146   Biso      1.000     N          -0.203129           
         N15       1.0000    0.26900   0.20487   0.44994   Biso      1.000     N          -0.21901700000000002          
         N16       1.0000    0.27970   0.33805   0.51710   Biso      1.000     N          -0.043292000000000004         
         N17       1.0000    0.15920   0.41133   0.51246   Biso      1.000     N          -0.071314           
         N18       1.0000    0.07230   0.32768   0.44316   Biso      1.000     N          -0.20013599999999998          
         N19       1.0000    0.97400   0.42877   0.28854   Biso      1.000     N          -0.20143  
         N20       1.0000    0.23100   0.75493   0.55006   Biso      1.000     N          -0.221173           
         O1        1.0000    0.02040   0.93718   0.71496   Biso      1.000     O          -0.534926           
         O2        1.0000    0.80170   0.02890   0.69460   Biso      1.000     O          -0.514789           
         O3        1.0000    0.52040   0.77778   0.71496   Biso      1.000     O          -0.535369           
         O4        1.0000    0.69830   0.33430   0.30540   Biso      1.000     O          -0.5144890000000001           
         O5        1.0000    0.97960   0.06282   0.28504   Biso      1.000     O          -0.535478           
         O6        1.0000    0.19830   0.97110   0.30540   Biso      1.000     O          -0.5139020000000001           
         O7        1.0000    0.30170   0.66570   0.69460   Biso      1.000     O          -0.515473           
         O8        1.0000    0.47960   0.22222   0.28504   Biso      1.000     O          -0.536122 