
##########################################################################
#               Crystallographic Information Format file
#               Produced by PyCifRW module
#
#  This is a CIF file.  CIF has been adopted by the International
#  Union of Crystallography as the standard for data archiving and
#  transmission.
#
#  For information on this file format, follow the CIF links at
#  http://www.iucr.org
##########################################################################

data_image0

_cell_length_a                          8.6066
_cell_length_b                          10.156
_cell_length_c                          11.161
_cell_angle_alpha                       65.26
_cell_angle_beta                        71.76
_cell_angle_gamma                       78.68
_symmetry_space_group_name_H-M          'P 1'
_symmetry_int_tables_number             1
loop_
  _symmetry_equiv_pos_as_xyz
         'x, y, z' 
loop_
  _atom_site_label
  _atom_site_occupancy
  _atom_site_fract_x
  _atom_site_fract_y
  _atom_site_fract_z
  _atom_site_thermal_displace_type
  _atom_site_B_iso_or_equiv
  _atom_site_type_symbol
  _atom_site_charge
         C1        1.0000    0.47470   0.58670   0.07300   Biso      1.000     C          -0.113883           
         C2        1.0000    0.66200   0.95890   0.95180   Biso      1.000     C          -0.099147           
         C3        1.0000    0.41990   0.93090   0.13600   Biso      1.000     C          -0.097933           
         C4        1.0000    0.58260   0.88900   0.08890   Biso      1.000     C          -0.00554  
         C5        1.0000    0.67460   0.76800   0.18010   Biso      1.000     C          0.602825  
         C6        1.0000    0.01000   0.01640   0.36870   Biso      1.000     C          -0.089272           
         C7        1.0000    0.95720   0.86880   0.60850   Biso      1.000     C          -0.118122           
         C8        1.0000    0.96740   0.88560   0.47640   Biso      1.000     C          -0.022679           
         C9        1.0000    0.93160   0.76520   0.44740   Biso      1.000     C          0.638667  
         C10       1.0000    0.37040   0.43020   0.00900   Biso      1.000     C          -0.108827           
         C11       1.0000    0.06840   0.23480   0.55260   Biso      1.000     C          0.638662  
         C12       1.0000    0.03260   0.11440   0.52360   Biso      1.000     C          -0.022689           
         C13       1.0000    0.04280   0.13120   0.39150   Biso      1.000     C          -0.118108           
         C14       1.0000    0.99000   0.98360   0.63130   Biso      1.000     C          -0.08926  
         C15       1.0000    0.32540   0.23200   0.81990   Biso      1.000     C          0.602824  
         C16       1.0000    0.41740   0.11100   0.91110   Biso      1.000     C          -0.005544           
         C17       1.0000    0.58010   0.06910   0.86400   Biso      1.000     C          -0.097923           
         C18       1.0000    0.33800   0.04110   0.04820   Biso      1.000     C          -0.09914  
         C19       1.0000    0.82110   0.46110   0.83090   Biso      1.000     C          0.602121  
         C20       1.0000    0.65480   0.48230   0.91760   Biso      1.000     C          -0.008342           
         C21       1.0000    0.52530   0.41330   0.92700   Biso      1.000     C          -0.113888           
         C22       1.0000    0.62960   0.56980   0.99100   Biso      1.000     C          -0.108831           
         C23       1.0000    0.17890   0.53890   0.16910   Biso      1.000     C          0.602121  
         C24       1.0000    0.34520   0.51770   0.08240   Biso      1.000     C          -0.008347           
         Gd1       1.0000    0.86814   0.56025   0.34671   Biso      1.000     Gd          1.987167  
         Gd2       1.0000    0.13186   0.43975   0.65329   Biso      1.000     Gd          1.987164  
         H1        1.0000    0.92870   0.78140   0.68110   Biso      1.000     H          0.122934  
         H2        1.0000    0.01670   0.02740   0.28030   Biso      1.000     H          0.128755  
         H3        1.0000    0.36530   0.88490   0.22730   Biso      1.000     H          0.114392  
         H4        1.0000    0.77130   0.93120   0.91890   Biso      1.000     H          0.118739  
         H5        1.0000    0.45750   0.64510   0.12230   Biso      1.000     H          0.11012   
         H6        1.0000    0.71600   0.61660   0.98520   Biso      1.000     H          0.120623  
         H7        1.0000    0.07130   0.21860   0.31890   Biso      1.000     H          0.122933  
         H8        1.0000    0.98330   0.97260   0.71970   Biso      1.000     H          0.128754  
         H9        1.0000    0.63470   0.11510   0.77270   Biso      1.000     H          0.114391  
         H10       1.0000    0.22870   0.06880   0.08110   Biso      1.000     H          0.118739  
         H11       1.0000    0.54250   0.35490   0.87770   Biso      1.000     H          0.110121  
         H12       1.0000    0.28400   0.38340   0.01480   Biso      1.000     H          0.120623  
         O1        1.0000    0.17830   0.26500   0.86895   Biso      1.000     O          -0.606475           
         O2        1.0000    0.39780   0.29960   0.69548   Biso      1.000     O          -0.692691           
         O3        1.0000    0.13110   0.20219   0.64910   Biso      1.000     O          -0.571681           
         O4        1.0000    0.03620   0.36646   0.48056   Biso      1.000     O          -0.762265           
         O5        1.0000    0.06310   0.47663   0.17499   Biso      1.000     O          -0.623574           
         O6        1.0000    0.60220   0.70040   0.30452   Biso      1.000     O          -0.69269  
         O7        1.0000    0.82170   0.73500   0.13105   Biso      1.000     O          -0.606476           
         O8        1.0000    0.86890   0.79781   0.35090   Biso      1.000     O          -0.571682           
         O9        1.0000    0.96380   0.63354   0.51944   Biso      1.000     O          -0.762265           
         O10       1.0000    0.84310   0.38106   0.76416   Biso      1.000     O          -0.625913           
         O11       1.0000    0.15690   0.61894   0.23584   Biso      1.000     O          -0.625913           
         O12       1.0000    0.93690   0.52337   0.82501   Biso      1.000     O          -0.623574 