
##########################################################################
#               Crystallographic Information Format file
#               Produced by PyCifRW module
#
#  This is a CIF file.  CIF has been adopted by the International
#  Union of Crystallography as the standard for data archiving and
#  transmission.
#
#  For information on this file format, follow the CIF links at
#  http://www.iucr.org
##########################################################################

data_image0

_cell_length_a                          8.6006
_cell_length_b                          10.173
_cell_length_c                          11.125
_cell_angle_alpha                       65.11
_cell_angle_beta                        71.8
_cell_angle_gamma                       78.86
_symmetry_space_group_name_H-M          'P 1'
_symmetry_int_tables_number             1
loop_
  _symmetry_equiv_pos_as_xyz
         'x, y, z' 
loop_
  _atom_site_label
  _atom_site_occupancy
  _atom_site_fract_x
  _atom_site_fract_y
  _atom_site_fract_z
  _atom_site_thermal_displace_type
  _atom_site_B_iso_or_equiv
  _atom_site_type_symbol
  _atom_site_charge
         C1        1.0000    0.52640   0.40920   0.92850   Biso      1.000     C          -0.143928           
         C2        1.0000    0.00730   0.01580   0.36950   Biso      1.000     C          -0.104751           
         C3        1.0000    0.95710   0.86730   0.60970   Biso      1.000     C          -0.158072           
         C4        1.0000    0.41880   0.92960   0.13790   Biso      1.000     C          -0.175953           
         C5        1.0000    0.58120   0.07040   0.86210   Biso      1.000     C          -0.175953           
         C6        1.0000    0.33780   0.04020   0.04810   Biso      1.000     C          -0.120021           
         C7        1.0000    0.41770   0.11160   0.91020   Biso      1.000     C          0.039106999999999996          
         C8        1.0000    0.32590   0.23200   0.81930   Biso      1.000     C          0.598575  
         C9        1.0000    0.17900   0.54000   0.16740   Biso      1.000     C          0.588658  
         C10       1.0000    0.63020   0.56950   0.99230   Biso      1.000     C          -0.127074           
         C11       1.0000    0.34510   0.51820   0.08230   Biso      1.000     C          0.032783  
         C12       1.0000    0.96580   0.88530   0.47710   Biso      1.000     C          0.015363  
         C13       1.0000    0.65490   0.48180   0.91770   Biso      1.000     C          0.032773000000000004          
         C14       1.0000    0.93210   0.76410   0.44770   Biso      1.000     C          0.634373  
         C15       1.0000    0.47360   0.59080   0.07150   Biso      1.000     C          -0.14394  
         C16       1.0000    0.04290   0.13270   0.39030   Biso      1.000     C          -0.15806099999999998          
         C17       1.0000    0.66220   0.95980   0.95190   Biso      1.000     C          -0.12002  
         C18       1.0000    0.99270   0.98420   0.63050   Biso      1.000     C          -0.104742           
         C19       1.0000    0.03420   0.11470   0.52290   Biso      1.000     C          0.015359999999999999          
         C20       1.0000    0.06790   0.23590   0.55230   Biso      1.000     C          0.634372  
         C21       1.0000    0.36980   0.43050   0.00770   Biso      1.000     C          -0.127083           
         C22       1.0000    0.82100   0.46000   0.83260   Biso      1.000     C          0.588655  
         C23       1.0000    0.67410   0.76800   0.18070   Biso      1.000     C          0.5985729999999999  
         C24       1.0000    0.58230   0.88840   0.08980   Biso      1.000     C          0.039106999999999996          
         Gd1       1.0000    0.86812   0.56058   0.34629   Biso      1.000     Gd          1.990719  
         Gd2       1.0000    0.13188   0.43942   0.65371   Biso      1.000     Gd          1.9907130000000002  
         H1        1.0000    0.48920   0.56320   0.16090   Biso      1.000     H          0.12952   
         H2        1.0000    0.10550   0.00010   0.30490   Biso      1.000     H          0.131273  
         H3        1.0000    0.69700   0.89070   0.90910   Biso      1.000     H          0.125002  
         H4        1.0000    0.34080   0.33390   0.07020   Biso      1.000     H          0.132123  
         H5        1.0000    0.03390   0.78930   0.64560   Biso      1.000     H          0.13129000000000002           
         H6        1.0000    0.64590   0.15170   0.82890   Biso      1.000     H          0.140215  
         H7        1.0000    0.96610   0.21070   0.35440   Biso      1.000     H          0.13129100000000002           
         H8        1.0000    0.89450   0.99990   0.69510   Biso      1.000     H          0.131276  
         H9        1.0000    0.51080   0.43680   0.83910   Biso      1.000     H          0.129519  
         H10       1.0000    0.65920   0.66610   0.92980   Biso      1.000     H          0.132124  
         H11       1.0000    0.30300   0.10930   0.09090   Biso      1.000     H          0.125001  
         H12       1.0000    0.35410   0.84830   0.17110   Biso      1.000     H          0.140217  
         O1        1.0000    0.86810   0.79580   0.35290   Biso      1.000     O          -0.554126           
         O2        1.0000    0.15570   0.61970   0.23570   Biso      1.000     O          -0.620585           
         O3        1.0000    0.60210   0.69970   0.30560   Biso      1.000     O          -0.697749           
         O4        1.0000    0.06090   0.47740   0.17420   Biso      1.000     O          -0.618848           
         O5        1.0000    0.39790   0.30030   0.69440   Biso      1.000     O          -0.697749           
         O6        1.0000    0.17890   0.26480   0.86850   Biso      1.000     O          -0.599353           
         O7        1.0000    0.93910   0.52260   0.82580   Biso      1.000     O          -0.618847           
         O8        1.0000    0.84430   0.38030   0.76430   Biso      1.000     O          -0.620585           
         O9        1.0000    0.13190   0.20420   0.64710   Biso      1.000     O          -0.554127           
         O10       1.0000    0.03460   0.36800   0.47930   Biso      1.000     O          -0.76853  
         O11       1.0000    0.96540   0.63200   0.52070   Biso      1.000     O          -0.76853  
         O12       1.0000    0.82110   0.73520   0.13150   Biso      1.000     O          -0.599355 