
##########################################################################
#               Crystallographic Information Format file
#               Produced by PyCifRW module
#
#  This is a CIF file.  CIF has been adopted by the International
#  Union of Crystallography as the standard for data archiving and
#  transmission.
#
#  For information on this file format, follow the CIF links at
#  http://www.iucr.org
##########################################################################

data_image0

_cell_length_a                          7.0665
_cell_length_b                          14.5262
_cell_length_c                          16.7109
_cell_angle_alpha                       104.066
_cell_angle_beta                        102.206
_cell_angle_gamma                       90
_symmetry_space_group_name_H-M          'P 1'
_symmetry_int_tables_number             1
loop_
  _symmetry_equiv_pos_as_xyz
         'x, y, z' 
loop_
  _atom_site_label
  _atom_site_occupancy
  _atom_site_fract_x
  _atom_site_fract_y
  _atom_site_fract_z
  _atom_site_thermal_displace_type
  _atom_site_B_iso_or_equiv
  _atom_site_type_symbol
  _atom_site_charge
         C1        1.0000    0.85300   0.11370   0.75240   Biso      1.000     C          -0.061033           
         C2        1.0000    0.16180   0.52860   0.93920   Biso      1.000     C          -0.084299           
         C3        1.0000    0.02083   0.58700   0.89326   Biso      1.000     C          0.082273  
         C4        1.0000    0.72850   0.13420   0.41600   Biso      1.000     C          0.636148  
         C5        1.0000    0.70820   0.82360   0.41220   Biso      1.000     C          0.629763  
         C6        1.0000    0.09580   0.67610   0.33060   Biso      1.000     C          -0.204206           
         C7        1.0000    0.00560   0.74460   0.38180   Biso      1.000     C          -0.069493           
         C8        1.0000    0.80700   0.74700   0.36300   Biso      1.000     C          -0.047882           
         C9        1.0000    0.69610   0.68110   0.29500   Biso      1.000     C          -0.075614           
         C10       1.0000    0.78750   0.61020   0.24680   Biso      1.000     C          -0.259195           
         C11       1.0000    0.98610   0.60860   0.26260   Biso      1.000     C          0.27632   
         C12       1.0000    0.75100   0.05950   0.66640   Biso      1.000     C          0.643279  
         C13       1.0000    0.83140   0.19950   0.89220   Biso      1.000     C          -0.251839           
         C14       1.0000    0.74710   0.14440   0.81280   Biso      1.000     C          -0.065255           
         C15       1.0000    0.05110   0.13750   0.77260   Biso      1.000     C          -0.065251           
         C16       1.0000    0.13710   0.19280   0.85280   Biso      1.000     C          -0.23242  
         C17       1.0000    0.02480   0.22380   0.91140   Biso      1.000     C          0.28236   
         C18       1.0000    0.26990   0.21550   0.29540   Biso      1.000     C          -0.218559           
         C19       1.0000    0.38990   0.16780   0.34680   Biso      1.000     C          -0.060897           
         C20       1.0000    0.66400   0.24850   0.32760   Biso      1.000     C          -0.065484           
         C21       1.0000    0.83210   0.53020   0.84760   Biso      1.000     C          -0.076064           
         C22       1.0000    0.12640   0.62050   0.83440   Biso      1.000     C          -0.077436           
         C23       1.0000    0.96360   0.67070   0.95780   Biso      1.000     C          -0.078964           
         C24       1.0000    0.08760   0.72320   0.74180   Biso      1.000     C          0.285721  
         C25       1.0000    0.31250   0.86580   0.58400   Biso      1.000     C          0.637852  
         C26       1.0000    0.29600   0.17640   0.58780   Biso      1.000     C          0.628714  
         C27       1.0000    0.76520   0.32390   0.66940   Biso      1.000     C          -0.205259           
         C28       1.0000    0.62380   0.25540   0.61820   Biso      1.000     C          -0.070305           
         C29       1.0000    0.44400   0.25300   0.63700   Biso      1.000     C          -0.049685           
         C30       1.0000    0.40110   0.31890   0.70500   Biso      1.000     C          -0.071725           
         C31       1.0000    0.54070   0.38980   0.75320   Biso      1.000     C          -0.261898           
         C32       1.0000    0.72350   0.39140   0.73740   Biso      1.000     C          0.279343  
         C33       1.0000    0.08460   0.94050   0.33360   Biso      1.000     C          0.645787  
         C34       1.0000    0.54360   0.29700   0.27520   Biso      1.000     C          -0.263472           
         C35       1.0000    0.93920   0.80050   0.10780   Biso      1.000     C          -0.253727           
         C36       1.0000    0.10060   0.88630   0.24760   Biso      1.000     C          -0.06352  
         C37       1.0000    0.27850   0.86250   0.22740   Biso      1.000     C          -0.061893           
         C38       1.0000    0.28430   0.80720   0.14720   Biso      1.000     C          -0.235324           
         C39       1.0000    0.11340   0.77620   0.08860   Biso      1.000     C          0.285312  
         C40       1.0000    0.97450   0.78450   0.70460   Biso      1.000     C          -0.220993           
         C41       1.0000    0.04310   0.83220   0.65320   Biso      1.000     C          -0.055191           
         C42       1.0000    0.23040   0.81640   0.63760   Biso      1.000     C          -0.062593           
         C43       1.0000    0.33640   0.75150   0.67240   Biso      1.000     C          -0.066201           
         C44       1.0000    0.26840   0.70300   0.72480   Biso      1.000     C          -0.261788           
         C45       1.0000    0.93430   0.85560   0.18720   Biso      1.000     C          -0.063233           
         C46       1.0000    0.34580   0.27680   0.25820   Biso      1.000     C          0.289299  
         C47       1.0000    0.59280   0.18360   0.36240   Biso      1.000     C          -0.058639           
         C48       1.0000    0.29200   0.37950   0.16560   Biso      1.000     C          -0.076965           
         C49       1.0000    0.98450   0.46980   0.15240   Biso      1.000     C          -0.076274           
         C50       1.0000    0.22260   0.47140   0.06080   Biso      1.000     C          -0.086288           
         C51       1.0000    0.12757   0.41300   0.10674   Biso      1.000     C          0.080055  
         C52       1.0000    0.00580   0.32930   0.04220   Biso      1.000     C          -0.077408           
         H1        1.0000    0.07920   0.78830   0.42820   Biso      1.000     H          0.114457  
         H2        1.0000    0.56190   0.68420   0.28140   Biso      1.000     H          0.116755  
         H3        1.0000    0.71300   0.56330   0.20340   Biso      1.000     H          0.114311  
         H4        1.0000    0.75680   0.21980   0.93220   Biso      1.000     H          0.125014  
         H5        1.0000    0.61500   0.12780   0.79980   Biso      1.000     H          0.117486  
         H6        1.0000    0.12570   0.11670   0.73260   Biso      1.000     H          0.1249    
         H7        1.0000    0.26940   0.20870   0.86660   Biso      1.000     H          0.133245  
         H8        1.0000    0.13610   0.20580   0.28620   Biso      1.000     H          0.135074  
         H9        1.0000    0.33700   0.12540   0.37080   Biso      1.000     H          0.122779  
         H10       1.0000    0.59520   0.34120   0.25260   Biso      1.000     H          0.123078  
         H11       1.0000    0.89400   0.35250   0.00960   Biso      1.000     H          0.085884  
         H12       1.0000    0.95960   0.28670   0.07140   Biso      1.000     H          0.093318  
         H13       1.0000    0.36250   0.43390   0.20720   Biso      1.000     H          0.095707  
         H14       1.0000    0.38150   0.34600   0.13360   Biso      1.000     H          0.09394   
         H15       1.0000    0.91450   0.42900   0.17580   Biso      1.000     H          0.096232  
         H16       1.0000    0.89140   0.49570   0.11320   Biso      1.000     H          0.090782  
         H17       1.0000    0.31510   0.43390   0.03320   Biso      1.000     H          0.084696  
         H18       1.0000    0.29210   0.52700   0.10100   Biso      1.000     H          0.089726  
         H19       1.0000    0.79740   0.26110   0.33920   Biso      1.000     H          0.115705  
         H20       1.0000    0.19110   0.47300   0.89900   Biso      1.000     H          0.08978   
         H21       1.0000    0.23030   0.67550   0.34200   Biso      1.000     H          0.137744  
         H22       1.0000    0.77820   0.50430   0.88680   Biso      1.000     H          0.091472  
         H23       1.0000    0.88830   0.32450   0.65800   Biso      1.000     H          0.137846  
         H24       1.0000    0.65100   0.21170   0.57180   Biso      1.000     H          0.115681  
         H25       1.0000    0.28050   0.31580   0.71860   Biso      1.000     H          0.116003  
         H26       1.0000    0.50960   0.43670   0.79660   Biso      1.000     H          0.114072  
         H27       1.0000    0.28190   0.56610   0.96680   Biso      1.000     H          0.083113  
         H28       1.0000    0.81520   0.87220   0.20020   Biso      1.000     H          0.116495  
         H29       1.0000    0.39310   0.88330   0.26740   Biso      1.000     H          0.122821  
         H30       1.0000    0.40280   0.79130   0.13340   Biso      1.000     H          0.134892  
         H31       1.0000    0.82460   0.78020   0.06780   Biso      1.000     H          0.125938  
         H32       1.0000    0.96620   0.87460   0.62920   Biso      1.000     H          0.121822  
         H33       1.0000    0.84990   0.79420   0.71380   Biso      1.000     H          0.135643  
         H34       1.0000    0.24790   0.65400   0.86640   Biso      1.000     H          0.092849  
         H35       1.0000    0.15530   0.56610   0.79280   Biso      1.000     H          0.095888  
         H36       1.0000    0.88820   0.71330   0.92860   Biso      1.000     H          0.09399   
         H37       1.0000    0.73870   0.57100   0.82420   Biso      1.000     H          0.095767  
         H38       1.0000    0.88440   0.64750   0.99040   Biso      1.000     H          0.085116  
         H39       1.0000    0.34260   0.65880   0.74740   Biso      1.000     H          0.123444  
         H40       1.0000    0.45820   0.73890   0.66080   Biso      1.000     H          0.116512  
         O1        1.0000    0.23239   0.95910   0.39378   Biso      1.000     O          -0.761577           
         O2        1.0000    0.87187   0.45550   0.78174   Biso      1.000     O          -0.189233           
         O3        1.0000    0.13005   0.17530   0.60270   Biso      1.000     O          -0.603042           
         O4        1.0000    0.33417   0.11060   0.52774   Biso      1.000     O          -0.764226           
         O5        1.0000    0.22382   0.93350   0.55844   Biso      1.000     O          -0.768577           
         O6        1.0000    0.47371   0.84330   0.56642   Biso      1.000     O          -0.606316           
         O7        1.0000    0.92590   0.96550   0.34660   Biso      1.000     O          -0.613669           
         O8        1.0000    0.00861   0.68210   0.79242   Biso      1.000     O          -0.192957           
         O9        1.0000    0.12034   0.28000   0.98768   Biso      1.000     O          -0.201115           
         O10       1.0000    0.08010   0.50000   0.00000   Biso      1.000     O          -0.201769           
         O11       1.0000    0.21619   0.31790   0.20758   Biso      1.000     O          -0.194958           
         O12       1.0000    0.52735   0.82470   0.39730   Biso      1.000     O          -0.603839           
         O13       1.0000    0.80643   0.88940   0.47226   Biso      1.000     O          -0.764914           
         O14       1.0000    0.66538   0.06650   0.44156   Biso      1.000     O          -0.76908  
         O15       1.0000    0.90729   0.15670   0.43358   Biso      1.000     O          -0.605062           
         O16       1.0000    0.57930   0.03450   0.65340   Biso      1.000     O          -0.612606           
         O17       1.0000    0.83861   0.04090   0.60622   Biso      1.000     O          -0.760572           
         O18       1.0000    0.13266   0.72000   0.01232   Biso      1.000     O          -0.201312           
         O19       1.0000    0.09013   0.54450   0.21826   Biso      1.000     O          -0.187932           
         Tb1       1.0000    0.00504   0.03048   0.49732   Biso      1.000     Tb          2.068456  
         Tb2       1.0000    0.50772   0.96952   0.50268   Biso      1.000     Tb          2.068368 