
##########################################################################
#               Crystallographic Information Format file
#               Produced by PyCifRW module
#
#  This is a CIF file.  CIF has been adopted by the International
#  Union of Crystallography as the standard for data archiving and
#  transmission.
#
#  For information on this file format, follow the CIF links at
#  http://www.iucr.org
##########################################################################

data_image0

_cell_length_a                          7.3933
_cell_length_b                          14.349
_cell_length_c                          16.9754
_cell_angle_alpha                       104.154
_cell_angle_beta                        102.578
_cell_angle_gamma                       90
_symmetry_space_group_name_H-M          'P 1'
_symmetry_int_tables_number             1
loop_
  _symmetry_equiv_pos_as_xyz
         'x, y, z' 
loop_
  _atom_site_label
  _atom_site_occupancy
  _atom_site_fract_x
  _atom_site_fract_y
  _atom_site_fract_z
  _atom_site_thermal_displace_type
  _atom_site_B_iso_or_equiv
  _atom_site_type_symbol
  _atom_site_charge
         C1        1.0000    0.85230   0.10890   0.75240   Biso      1.000     C          -0.067673           
         C2        1.0000    0.71240   0.81750   0.40620   Biso      1.000     C          0.619174  
         C3        1.0000    0.09160   0.67480   0.32420   Biso      1.000     C          -0.211347           
         C4        1.0000    0.00130   0.74360   0.37340   Biso      1.000     C          -0.073459           
         C5        1.0000    0.81020   0.74280   0.35700   Biso      1.000     C          -0.065487           
         C6        1.0000    0.71020   0.67230   0.28900   Biso      1.000     C          -0.071297           
         C7        1.0000    0.79600   0.60370   0.24160   Biso      1.000     C          -0.254995           
         C8        1.0000    0.98670   0.60510   0.25800   Biso      1.000     C          0.283708  
         C9        1.0000    0.75460   0.05380   0.66880   Biso      1.000     C          0.624929  
         C10       1.0000    0.83930   0.19020   0.89300   Biso      1.000     C          -0.249225           
         C11       1.0000    0.75500   0.13660   0.81420   Biso      1.000     C          -0.064498           
         C12       1.0000    0.30620   0.18250   0.59380   Biso      1.000     C          0.615876  
         C13       1.0000    0.03940   0.13710   0.77120   Biso      1.000     C          -0.065874           
         C14       1.0000    0.12630   0.19220   0.85020   Biso      1.000     C          -0.228967           
         C15       1.0000    0.02170   0.21870   0.90880   Biso      1.000     C          0.288147  
         C16       1.0000    0.27470   0.21290   0.29340   Biso      1.000     C          -0.212415           
         C17       1.0000    0.39180   0.17000   0.34700   Biso      1.000     C          -0.066358           
         C18       1.0000    0.58310   0.19110   0.36400   Biso      1.000     C          -0.060012           
         C19       1.0000    0.64890   0.25440   0.32700   Biso      1.000     C          -0.068665           
         C20       1.0000    0.52810   0.29810   0.27260   Biso      1.000     C          -0.254043           
         C21       1.0000    0.71630   0.14370   0.41860   Biso      1.000     C          0.625081  
         C22       1.0000    0.34230   0.27550   0.25560   Biso      1.000     C          0.283083  
         C23       1.0000    0.02080   0.58950   0.89600   Biso      1.000     C          0.076393  
         C24       1.0000    0.83950   0.53390   0.85120   Biso      1.000     C          -0.076282           
         C25       1.0000    0.45320   0.25720   0.64300   Biso      1.000     C          -0.064858           
         C26       1.0000    0.42120   0.32770   0.71100   Biso      1.000     C          -0.071803           
         C27       1.0000    0.55440   0.39630   0.75840   Biso      1.000     C          -0.258424           
         C28       1.0000    0.72870   0.39490   0.74200   Biso      1.000     C          0.284604  
         C29       1.0000    0.08580   0.94620   0.33120   Biso      1.000     C          0.623934  
         C30       1.0000    0.94630   0.80980   0.10700   Biso      1.000     C          -0.252472           
         C31       1.0000    0.94080   0.86340   0.18580   Biso      1.000     C          -0.060285           
         C32       1.0000    0.09990   0.89110   0.24760   Biso      1.000     C          -0.0683   
         C33       1.0000    0.26820   0.86290   0.22880   Biso      1.000     C          -0.06366  
         C34       1.0000    0.27610   0.80780   0.14980   Biso      1.000     C          -0.229211           
         C35       1.0000    0.11290   0.78130   0.09120   Biso      1.000     C          0.288508  
         C36       1.0000    0.98130   0.78710   0.70660   Biso      1.000     C          -0.214521           
         C37       1.0000    0.04480   0.83000   0.65300   Biso      1.000     C          -0.063953           
         C38       1.0000    0.21910   0.80890   0.63600   Biso      1.000     C          -0.060863           
         C39       1.0000    0.32190   0.74560   0.67300   Biso      1.000     C          -0.067345           
         C40       1.0000    0.25550   0.70190   0.72740   Biso      1.000     C          -0.254389           
         C41       1.0000    0.08670   0.72450   0.74440   Biso      1.000     C          0.283859  
         C42       1.0000    0.96820   0.67530   0.96000   Biso      1.000     C          -0.074833           
         C43       1.0000    0.12130   0.62240   0.83760   Biso      1.000     C          -0.077997           
         C44       1.0000    0.15490   0.52910   0.94120   Biso      1.000     C          -0.081061           
         C45       1.0000    0.00820   0.32470   0.04000   Biso      1.000     C          -0.079094           
         C46       1.0000    0.28370   0.37760   0.16240   Biso      1.000     C          -0.07634  
         C47       1.0000    0.98830   0.46610   0.14880   Biso      1.000     C          -0.077417           
         C48       1.0000    0.29770   0.85630   0.58140   Biso      1.000     C          0.623023  
         C49       1.0000    0.62790   0.25640   0.62660   Biso      1.000     C          -0.071113           
         C50       1.0000    0.76740   0.32520   0.67580   Biso      1.000     C          -0.213402           
         C51       1.0000    0.21370   0.47090   0.05880   Biso      1.000     C          -0.082783           
         C52       1.0000    0.12480   0.41050   0.10400   Biso      1.000     C          0.079026  
         H1        1.0000    0.65340   0.20960   0.58240   Biso      1.000     H          0.108032  
         H2        1.0000    0.77260   0.20640   0.93460   Biso      1.000     H          0.129958  
         H3        1.0000    0.62910   0.11880   0.80240   Biso      1.000     H          0.117321  
         H4        1.0000    0.10800   0.11890   0.73060   Biso      1.000     H          0.117529  
         H5        1.0000    0.25200   0.21060   0.86280   Biso      1.000     H          0.136293  
         H6        1.0000    0.14730   0.19940   0.28240   Biso      1.000     H          0.13388   
         H7        1.0000    0.34420   0.12730   0.37160   Biso      1.000     H          0.11374   
         H8        1.0000    0.77600   0.26880   0.33820   Biso      1.000     H          0.118208  
         H9        1.0000    0.57410   0.34190   0.24840   Biso      1.000     H          0.121141  
         H10       1.0000    0.89940   0.34770   0.00840   Biso      1.000     H          0.086071  
         H11       1.0000    0.96680   0.28100   0.06880   Biso      1.000     H          0.093602  
         H12       1.0000    0.35120   0.43310   0.20300   Biso      1.000     H          0.095479  
         H13       1.0000    0.36880   0.34370   0.13060   Biso      1.000     H          0.091617  
         H14       1.0000    0.92280   0.42400   0.17140   Biso      1.000     H          0.096303  
         H15       1.0000    0.89800   0.49210   0.11040   Biso      1.000     H          0.090915  
         H16       1.0000    0.30160   0.43340   0.03120   Biso      1.000     H          0.08148   
         H17       1.0000    0.28080   0.52700   0.09880   Biso      1.000     H          0.087394  
         H18       1.0000    0.72590   0.55600   0.19840   Biso      1.000     H          0.116933  
         H19       1.0000    0.58140   0.67220   0.27600   Biso      1.000     H          0.110782  
         H20       1.0000    0.07100   0.79040   0.41760   Biso      1.000     H          0.108563  
         H21       1.0000    0.22050   0.67560   0.33560   Biso      1.000     H          0.141819  
         H22       1.0000    0.30540   0.32780   0.72400   Biso      1.000     H          0.111237  
         H23       1.0000    0.52750   0.44400   0.80160   Biso      1.000     H          0.118748  
         H24       1.0000    0.83800   0.79360   0.06540   Biso      1.000     H          0.130556  
         H25       1.0000    0.82670   0.88120   0.19760   Biso      1.000     H          0.115098  
         H26       1.0000    0.37740   0.88110   0.26940   Biso      1.000     H          0.116881  
         H27       1.0000    0.38920   0.78940   0.13720   Biso      1.000     H          0.136009  
         H28       1.0000    0.86490   0.80060   0.71760   Biso      1.000     H          0.133925  
         H29       1.0000    0.97260   0.87270   0.62840   Biso      1.000     H          0.113905  
         H30       1.0000    0.43780   0.73120   0.66180   Biso      1.000     H          0.117015  
         H31       1.0000    0.32570   0.65810   0.75160   Biso      1.000     H          0.120943  
         H32       1.0000    0.89100   0.65230   0.99160   Biso      1.000     H          0.083387  
         H33       1.0000    0.89800   0.71900   0.93120   Biso      1.000     H          0.093564  
         H34       1.0000    0.14820   0.56690   0.79700   Biso      1.000     H          0.095694  
         H35       1.0000    0.23820   0.65630   0.86940   Biso      1.000     H          0.092684  
         H36       1.0000    0.75140   0.57600   0.82860   Biso      1.000     H          0.096351  
         H37       1.0000    0.78760   0.50790   0.88960   Biso      1.000     H          0.090815  
         H38       1.0000    0.27040   0.56660   0.96880   Biso      1.000     H          0.080818  
         H39       1.0000    0.88490   0.32440   0.66440   Biso      1.000     H          0.142835  
         H40       1.0000    0.18200   0.47300   0.90120   Biso      1.000     H          0.086875  
         La1       1.0000    0.50739   0.96377   0.50132   Biso      1.000     La          1.840485  
         La2       1.0000    0.00607   0.03623   0.49868   Biso      1.000     La          1.841315  
         O1        1.0000    0.87385   0.45770   0.78550   Biso      1.000     O          -0.188562           
         O2        1.0000    0.00890   0.68460   0.79580   Biso      1.000     O          -0.200143           
         O3        1.0000    0.15017   0.18460   0.60954   Biso      1.000     O          -0.57038  
         O4        1.0000    0.34163   0.11610   0.53466   Biso      1.000     O          -0.689134           
         O5        1.0000    0.22025   0.92810   0.55990   Biso      1.000     O          -0.689909           
         O6        1.0000    0.44040   0.82610   0.55740   Biso      1.000     O          -0.578462           
         O7        1.0000    0.93533   0.97780   0.34206   Biso      1.000     O          -0.583697           
         O8        1.0000    0.22451   0.95760   0.39222   Biso      1.000     O          -0.68986  
         O9        1.0000    0.11595   0.27560   0.98510   Biso      1.000     O          -0.210458           
         O10       1.0000    0.08835   0.54230   0.21450   Biso      1.000     O          -0.188406           
         O11       1.0000    0.21310   0.31540   0.20420   Biso      1.000     O          -0.200706           
         O12       1.0000    0.54063   0.81540   0.39046   Biso      1.000     O          -0.571452           
         O13       1.0000    0.80697   0.88390   0.46534   Biso      1.000     O          -0.690824           
         O14       1.0000    0.66035   0.07190   0.44010   Biso      1.000     O          -0.69042  
         O15       1.0000    0.88300   0.17390   0.44260   Biso      1.000     O          -0.57996  
         O16       1.0000    0.59327   0.02220   0.65794   Biso      1.000     O          -0.584349           
         O17       1.0000    0.83229   0.04240   0.60778   Biso      1.000     O          -0.690171           
         O18       1.0000    0.13085   0.72440   0.01490   Biso      1.000     O          -0.210728           
         O19       1.0000    0.07750   0.50000   0.00000   Biso      1.000     O          -0.193203 