
##########################################################################
#               Crystallographic Information Format file
#               Produced by PyCifRW module
#
#  This is a CIF file.  CIF has been adopted by the International
#  Union of Crystallography as the standard for data archiving and
#  transmission.
#
#  For information on this file format, follow the CIF links at
#  http://www.iucr.org
##########################################################################

data_image0

_cell_length_a                          9.1664
_cell_length_b                          9.1664
_cell_length_c                          14.969
_cell_angle_alpha                       79.9664
_cell_angle_beta                        79.9667
_cell_angle_gamma                       115.529
_symmetry_space_group_name_H-M          'P 1'
_symmetry_int_tables_number             1
loop_
  _symmetry_equiv_pos_as_xyz
         'x, y, z' 
loop_
  _atom_site_label
  _atom_site_occupancy
  _atom_site_fract_x
  _atom_site_fract_y
  _atom_site_fract_z
  _atom_site_thermal_displace_type
  _atom_site_B_iso_or_equiv
  _atom_site_type_symbol
  _atom_site_charge
         C1        1.0000    0.04124   0.22284   0.06432   Biso      1.000     C          -0.15848099999999998          
         C2        1.0000    0.89444   0.21284   0.06432   Biso      1.000     C          -0.16028699999999999          
         C3        1.0000    0.75137   0.05917   0.05826   Biso      1.000     C          0.655871  
         C4        1.0000    0.77716   0.95876   0.43568   Biso      1.000     C          -0.15846500000000002          
         C5        1.0000    0.61743   0.80963   0.44174   Biso      1.000     C          0.6555439999999999  
         C6        1.0000    0.78716   0.10556   0.43568   Biso      1.000     C          -0.160307           
         C7        1.0000    0.94083   0.24863   0.44174   Biso      1.000     C          0.65587   
         C8        1.0000    0.95876   0.77716   0.93568   Biso      1.000     C          -0.15847999999999998          
         C9        1.0000    0.80963   0.61743   0.94174   Biso      1.000     C          0.655542  
         C10       1.0000    0.10556   0.78716   0.93568   Biso      1.000     C          -0.16028699999999999          
         C11       1.0000    0.24863   0.94083   0.94174   Biso      1.000     C          0.655872  
         C12       1.0000    0.22284   0.04124   0.56432   Biso      1.000     C          -0.15846400000000002          
         C13       1.0000    0.38257   0.19037   0.55826   Biso      1.000     C          0.6555439999999999  
         C14       1.0000    0.21284   0.89444   0.56432   Biso      1.000     C          -0.160307           
         C15       1.0000    0.05917   0.75137   0.55826   Biso      1.000     C          0.65587   
         C16       1.0000    0.42540   0.57460   0.25000   Biso      1.000     C          0.5143    
         C17       1.0000    0.67540   0.32460   0.75000   Biso      1.000     C          0.513588  
         C18       1.0000    0.57460   0.42540   0.75000   Biso      1.000     C          0.5143    
         C19       1.0000    0.19037   0.38257   0.05826   Biso      1.000     C          0.655543  
         C20       1.0000    0.32460   0.67540   0.25000   Biso      1.000     C          0.5135890000000001  
         H1        1.0000    0.06200   0.12200   0.07000   Biso      1.000     H          0.131278  
         H2        1.0000    0.86800   0.30800   0.07000   Biso      1.000     H          0.131169  
         H3        1.0000    0.87800   0.93800   0.43000   Biso      1.000     H          0.13127   
         H4        1.0000    0.69200   0.13200   0.43000   Biso      1.000     H          0.131174  
         H5        1.0000    0.93800   0.87800   0.93000   Biso      1.000     H          0.131278  
         H6        1.0000    0.13200   0.69200   0.93000   Biso      1.000     H          0.131169  
         H7        1.0000    0.12200   0.06200   0.57000   Biso      1.000     H          0.13127   
         H8        1.0000    0.30800   0.86800   0.57000   Biso      1.000     H          0.131174  
         La1       1.0000    0.25916   0.50916   0.48168   Biso      1.000     La          1.949014  
         La2       1.0000    0.50916   0.25916   0.98168   Biso      1.000     La          1.949014  
         La3       1.0000    0.74084   0.49084   0.51832   Biso      1.000     La          1.949013  
         La4       1.0000    0.49084   0.74084   0.01832   Biso      1.000     La          1.949014  
         O1        1.0000    0.51041   0.43319   0.82840   Biso      1.000     O          -0.5827479999999999           
         O2        1.0000    0.74802   0.91780   0.07558   Biso      1.000     O          -0.586896           
         O3        1.0000    0.63451   0.07629   0.03260   Biso      1.000     O          -0.690022           
         O4        1.0000    0.66119   0.23841   0.82840   Biso      1.000     O          -0.582431           
         O5        1.0000    0.49338   0.82360   0.42442   Biso      1.000     O          -0.5866899999999999           
         O6        1.0000    0.60889   0.66711   0.46740   Biso      1.000     O          -0.689268           
         O7        1.0000    0.56681   0.48959   0.67160   Biso      1.000     O          -0.582749           
         O8        1.0000    0.08220   0.25198   0.42442   Biso      1.000     O          -0.5868899999999999           
         O9        1.0000    0.92371   0.36549   0.46740   Biso      1.000     O          -0.690018           
         O10       1.0000    0.76159   0.33881   0.67160   Biso      1.000     O          -0.582429           
         O11       1.0000    0.82360   0.49338   0.92442   Biso      1.000     O          -0.586685           
         O12       1.0000    0.66711   0.60889   0.96740   Biso      1.000     O          -0.6892689999999999           
         O13       1.0000    0.48959   0.56681   0.17160   Biso      1.000     O          -0.5827479999999999           
         O14       1.0000    0.25198   0.08220   0.92442   Biso      1.000     O          -0.586897           
         O15       1.0000    0.36549   0.92371   0.96740   Biso      1.000     O          -0.6900229999999999           
         O16       1.0000    0.33881   0.76159   0.17160   Biso      1.000     O          -0.582432           
         O17       1.0000    0.50662   0.17640   0.57558   Biso      1.000     O          -0.586689           
         O18       1.0000    0.39111   0.33289   0.53260   Biso      1.000     O          -0.689268           
         O19       1.0000    0.43319   0.51041   0.32840   Biso      1.000     O          -0.582749           
         O20       1.0000    0.91780   0.74802   0.57558   Biso      1.000     O          -0.5868899999999999           
         O21       1.0000    0.07629   0.63451   0.53260   Biso      1.000     O          -0.690017           
         O22       1.0000    0.23841   0.66119   0.32840   Biso      1.000     O          -0.582429           
         O23       1.0000    0.33289   0.39111   0.03260   Biso      1.000     O          -0.6892689999999999           
         O24       1.0000    0.17640   0.50662   0.07558   Biso      1.000     O          -0.586685 