
##########################################################################
#               Crystallographic Information Format file
#               Produced by PyCifRW module
#
#  This is a CIF file.  CIF has been adopted by the International
#  Union of Crystallography as the standard for data archiving and
#  transmission.
#
#  For information on this file format, follow the CIF links at
#  http://www.iucr.org
##########################################################################

data_image0

_cell_length_a                          9.8623
_cell_length_b                          13.1949
_cell_length_c                          17.8953
_cell_angle_alpha                       84.0894
_cell_angle_beta                        74.005
_cell_angle_gamma                       68.0552
_symmetry_space_group_name_H-M          'P 1'
_symmetry_int_tables_number             1
loop_
  _symmetry_equiv_pos_as_xyz
         'x, y, z' 
loop_
  _atom_site_label
  _atom_site_occupancy
  _atom_site_fract_x
  _atom_site_fract_y
  _atom_site_fract_z
  _atom_site_thermal_displace_type
  _atom_site_B_iso_or_equiv
  _atom_site_type_symbol
  _atom_site_charge
         C1        1.0000    0.99733   0.16052   0.43342   Biso      1.000     C          0.58676   
         C2        1.0000    0.15631   0.85620   0.46818   Biso      1.000     C          -0.019401           
         C3        1.0000    0.19950   0.75000   0.42800   Biso      1.000     C          0.604031  
         C4        1.0000    0.83242   0.02428   0.81248   Biso      1.000     C          0.150184  
         C5        1.0000    0.75407   0.10212   0.92074   Biso      1.000     C          0.174537  
         C6        1.0000    0.36355   0.02906   0.80644   Biso      1.000     C          0.170062  
         C7        1.0000    0.27889   0.08928   0.92114   Biso      1.000     C          0.160785  
         C8        1.0000    0.36228   0.55038   0.15966   Biso      1.000     C          0.556232  
         C9        1.0000    0.34101   0.55034   0.08044   Biso      1.000     C          -0.01376  
         C10       1.0000    0.10213   0.95546   0.43188   Biso      1.000     C          -0.128998           
         C11       1.0000    0.38323   0.45060   0.04374   Biso      1.000     C          -0.125765           
         C12       1.0000    0.36517   0.44788   0.97038   Biso      1.000     C          -0.014657           
         C13       1.0000    0.30759   0.54454   0.93188   Biso      1.000     C          -0.126359           
         C14       1.0000    0.26251   0.64380   0.96818   Biso      1.000     C          -0.021929           
         C15       1.0000    0.19950   0.75000   0.92800   Biso      1.000     C          0.60548   
         C16       1.0000    0.66918   0.97572   0.18752   Biso      1.000     C          0.150279  
         C17       1.0000    0.77693   0.89788   0.07926   Biso      1.000     C          0.17644   
         C18       1.0000    0.19905   0.97094   0.19356   Biso      1.000     C          0.169602  
         C19       1.0000    0.28931   0.91072   0.07886   Biso      1.000     C          0.160927  
         C20       1.0000    0.40785   0.33948   0.93342   Biso      1.000     C          0.585612  
         C21       1.0000    0.06305   0.05212   0.47038   Biso      1.000     C          -0.016085           
         C22       1.0000    0.08383   0.04940   0.54374   Biso      1.000     C          -0.123956           
         C23       1.0000    0.14135   0.94966   0.58044   Biso      1.000     C          -0.014295           
         C24       1.0000    0.89490   0.52428   0.68752   Biso      1.000     C          0.149818  
         C25       1.0000    0.92481   0.60212   0.57926   Biso      1.000     C          0.173952  
         C26       1.0000    0.41999   0.52906   0.69356   Biso      1.000     C          0.169257  
         C27       1.0000    0.45003   0.58928   0.57886   Biso      1.000     C          0.161972  
         C28       1.0000    0.56885   0.14668   0.45702   Biso      1.000     C          -0.126137           
         C29       1.0000    0.77194   0.05038   0.34034   Biso      1.000     C          0.558823  
         C30       1.0000    0.67145   0.05034   0.41956   Biso      1.000     C          -0.013643           
         C31       1.0000    0.67697   0.95060   0.45626   Biso      1.000     C          -0.125164           
         C32       1.0000    0.59127   0.83948   0.56658   Biso      1.000     C          0.585925  
         C33       1.0000    0.58555   0.94788   0.52962   Biso      1.000     C          -0.015087           
         C34       1.0000    0.48947   0.04454   0.56812   Biso      1.000     C          -0.12652  
         C35       1.0000    0.48069   0.14380   0.53182   Biso      1.000     C          -0.020404           
         C36       1.0000    0.37750   0.25000   0.57200   Biso      1.000     C          0.604261  
         C37       1.0000    0.10670   0.47572   0.31248   Biso      1.000     C          0.149953  
         C38       1.0000    0.10619   0.39788   0.42074   Biso      1.000     C          0.173326  
         C39       1.0000    0.64261   0.47094   0.30644   Biso      1.000     C          0.167988  
         C40       1.0000    0.61817   0.41072   0.42114   Biso      1.000     C          0.161191  
         C41       1.0000    0.17255   0.85332   0.54298   Biso      1.000     C          -0.125287           
         C42       1.0000    0.16266   0.94962   0.65966   Biso      1.000     C          0.557318  
         C43       1.0000    0.96553   0.35332   0.95702   Biso      1.000     C          -0.125303           
         C44       1.0000    0.07232   0.44962   0.84034   Biso      1.000     C          0.557623  
         C45       1.0000    0.27587   0.64668   0.04298   Biso      1.000     C          -0.124278           
         C46       1.0000    0.87757   0.54940   0.95626   Biso      1.000     C          -0.124785           
         C47       1.0000    0.68075   0.66052   0.06658   Biso      1.000     C          0.586523  
         C48       1.0000    0.78343   0.55212   0.02962   Biso      1.000     C          -0.015409           
         C49       1.0000    0.78401   0.45546   0.06812   Biso      1.000     C          -0.128107           
         C50       1.0000    0.87449   0.35620   0.03182   Biso      1.000     C          -0.020769           
         C51       1.0000    0.87750   0.25000   0.07200   Biso      1.000     C          0.603869  
         C52       1.0000    0.97179   0.44966   0.91956   Biso      1.000     C          -0.014067           
         H1        1.0000    0.41890   0.01520   0.75480   Biso      1.000     H          0.109249  
         H2        1.0000    0.26350   0.12640   0.96600   Biso      1.000     H          0.109739  
         H3        1.0000    0.24110   0.71340   0.06820   Biso      1.000     H          0.118868  
         H4        1.0000    0.42380   0.38560   0.06900   Biso      1.000     H          0.126227  
         H5        1.0000    0.29930   0.54280   0.88160   Biso      1.000     H          0.122724  
         H6        1.0000    0.02270   0.28660   0.93180   Biso      1.000     H          0.119268  
         H7        1.0000    0.80300   0.85260   0.03700   Biso      1.000     H          0.111888  
         H8        1.0000    0.35590   0.87360   0.03400   Biso      1.000     H          0.110016  
         H9        1.0000    0.69260   0.14740   0.96300   Biso      1.000     H          0.111835  
         H10       1.0000    0.87840   0.61440   0.93100   Biso      1.000     H          0.126369  
         H11       1.0000    0.72370   0.45720   0.11840   Biso      1.000     H          0.123792  
         H12       1.0000    0.60480   0.99640   0.23680   Biso      1.000     H          0.10936   
         H13       1.0000    0.83800   0.00360   0.76320   Biso      1.000     H          0.108832  
         H14       1.0000    0.18890   0.98480   0.24520   Biso      1.000     H          0.109487  
         H15       1.0000    0.05940   0.11440   0.56900   Biso      1.000     H          0.125925  
         H16       1.0000    0.09210   0.95720   0.38160   Biso      1.000     H          0.123723  
         H17       1.0000    0.85120   0.50360   0.73680   Biso      1.000     H          0.109055  
         H18       1.0000    0.90560   0.64740   0.53700   Biso      1.000     H          0.111674  
         H19       1.0000    0.47950   0.62640   0.53400   Biso      1.000     H          0.109377  
         H20       1.0000    0.55930   0.21340   0.43180   Biso      1.000     H          0.119505  
         H21       1.0000    0.74280   0.88560   0.43100   Biso      1.000     H          0.125759  
         H22       1.0000    0.43090   0.04280   0.61840   Biso      1.000     H          0.122852  
         H23       1.0000    0.42370   0.51520   0.74520   Biso      1.000     H          0.109311  
         H24       1.0000    0.09000   0.35260   0.46300   Biso      1.000     H          0.11201   
         H25       1.0000    0.68410   0.48480   0.25480   Biso      1.000     H          0.109931  
         H26       1.0000    0.63990   0.37360   0.46600   Biso      1.000     H          0.109784  
         H27       1.0000    0.09160   0.49640   0.26320   Biso      1.000     H          0.109193  
         H28       1.0000    0.20450   0.78660   0.56820   Biso      1.000     H          0.119177  
         N1        1.0000    0.72398   0.40518   0.35326   Biso      1.000     N          -0.325259           
         N2        1.0000    0.66582   0.90090   0.14366   Biso      1.000     N          -0.342697           
         N3        1.0000    0.26114   0.98620   0.84172   Biso      1.000     N          -0.179323           
         N4        1.0000    0.20557   0.02572   0.91674   Biso      1.000     N          -0.182778           
         N5        1.0000    0.37916   0.09482   0.85326   Biso      1.000     N          -0.326762           
         N6        1.0000    0.71038   0.09910   0.85634   Biso      1.000     N          -0.340476           
         N7        1.0000    0.89161   0.03482   0.91756   Biso      1.000     N          -0.172521           
         N8        1.0000    0.17689   0.51662   0.34680   Biso      1.000     N          -0.171288           
         N9        1.0000    0.49734   0.51380   0.34172   Biso      1.000     N          -0.177921           
         N10       1.0000    0.84399   0.96518   0.08244   Biso      1.000     N          -0.17464  
         N11       1.0000    0.48129   0.47428   0.41674   Biso      1.000     N          -0.184351           
         N12       1.0000    0.94351   0.98338   0.84680   Biso      1.000     N          -0.172673           
         N13       1.0000    0.77369   0.01662   0.15320   Biso      1.000     N          -0.171577           
         N14       1.0000    0.04031   0.48338   0.65320   Biso      1.000     N          -0.171515           
         N15       1.0000    0.14803   0.97428   0.08326   Biso      1.000     N          -0.182924           
         N16       1.0000    0.08906   0.01380   0.15828   Biso      1.000     N          -0.1777   
         N17       1.0000    0.35286   0.48620   0.65828   Biso      1.000     N          -0.177952           
         N18       1.0000    0.37231   0.52572   0.58326   Biso      1.000     N          -0.183645           
         N19       1.0000    0.48242   0.59482   0.64674   Biso      1.000     N          -0.327162           
         N20       1.0000    0.05917   0.53482   0.58244   Biso      1.000     N          -0.172602           
         N21       1.0000    0.81672   0.59910   0.64366   Biso      1.000     N          -0.340659           
         N22       1.0000    0.17643   0.46518   0.41756   Biso      1.000     N          -0.172003           
         N23       1.0000    0.32724   0.90518   0.14674   Biso      1.000     N          -0.327856           
         N24       1.0000    0.05948   0.40090   0.35634   Biso      1.000     N          -0.34102  
         O1        1.0000    0.29442   0.64084   0.19872   Biso      1.000     O          -0.567694           
         O2        1.0000    0.44157   0.46642   0.18624   Biso      1.000     O          -0.555174           
         O3        1.0000    0.43966   0.33690   0.85918   Biso      1.000     O          -0.564259           
         O4        1.0000    0.41262   0.25678   0.97398   Biso      1.000     O          -0.569204           
         O5        1.0000    0.02656   0.16310   0.35918   Biso      1.000     O          -0.564322           
         O6        1.0000    0.54884   0.83690   0.64082   Biso      1.000     O          -0.564377           
         O7        1.0000    0.33896   0.25016   0.64612   Biso      1.000     O          -0.547818           
         O8        1.0000    0.33570   0.33164   0.53116   Biso      1.000     O          -0.571694           
         O9        1.0000    0.18526   0.85916   0.69872   Biso      1.000     O          -0.568272           
         O10       1.0000    0.15799   0.03358   0.68624   Biso      1.000     O          -0.555421           
         O11       1.0000    0.91940   0.24322   0.47398   Biso      1.000     O          -0.569576           
         O12       1.0000    0.23524   0.74984   0.35388   Biso      1.000     O          -0.547373           
         O13       1.0000    0.19850   0.66836   0.46884   Biso      1.000     O          -0.571579           
         O14       1.0000    0.23508   0.75016   0.85388   Biso      1.000     O          -0.54779  
         O15       1.0000    0.63660   0.75678   0.52602   Biso      1.000     O          -0.569189           
         O16       1.0000    0.11686   0.83164   0.96884   Biso      1.000     O          -0.571737           
         O17       1.0000    0.74314   0.14084   0.30128   Biso      1.000     O          -0.568601           
         O18       1.0000    0.09423   0.53358   0.81376   Biso      1.000     O          -0.555754           
         O19       1.0000    0.64338   0.74322   0.02602   Biso      1.000     O          -0.569607           
         O20       1.0000    0.63574   0.66310   0.14082   Biso      1.000     O          -0.56451  
         O21       1.0000    0.83912   0.24984   0.14612   Biso      1.000     O          -0.547217           
         O22       1.0000    0.91734   0.16836   0.03116   Biso      1.000     O          -0.571093           
         O23       1.0000    0.87781   0.96642   0.31376   Biso      1.000     O          -0.556559           
         O24       1.0000    0.13398   0.35916   0.80128   Biso      1.000     O          -0.568498           
         Zn1       1.0000    0.86673   0.10220   0.19454   Biso      1.000     Zn          0.754974  
         Zn2       1.0000    0.51239   0.18072   0.83202   Biso      1.000     Zn          0.852733  
         Zn3       1.0000    0.16348   0.89779   0.80545   Biso      1.000     Zn          0.755299  
         Zn4       1.0000    0.94311   0.31928   0.33202   Biso      1.000     Zn          0.851879  
         Zn5       1.0000    0.21892   0.39780   0.69455   Biso      1.000     Zn          0.755564  
         Zn6       1.0000    0.59441   0.68072   0.66798   Biso      1.000     Zn          0.852104  
         Zn7       1.0000    0.02027   0.00000   0.00000   Biso      1.000     Zn          0.717921  
         Zn8       1.0000    0.27027   0.50000   0.50000   Biso      1.000     Zn          0.719114  
         Zn9       1.0000    0.31127   0.60221   0.30545   Biso      1.000     Zn          0.75451   
         Zn10      1.0000    0.52513   0.81928   0.16798   Biso      1.000     Zn          0.853031 