
##########################################################################
#               Crystallographic Information Format file
#               Produced by PyCifRW module
#
#  This is a CIF file.  CIF has been adopted by the International
#  Union of Crystallography as the standard for data archiving and
#  transmission.
#
#  For information on this file format, follow the CIF links at
#  http://www.iucr.org
##########################################################################

data_image0

_cell_length_a                          8.6876
_cell_length_b                          14.166
_cell_length_c                          15.14
_cell_angle_alpha                       115.093
_cell_angle_beta                        106.673
_cell_angle_gamma                       90
_symmetry_space_group_name_H-M          'P 1'
_symmetry_int_tables_number             1
loop_
  _symmetry_equiv_pos_as_xyz
         'x, y, z' 
loop_
  _atom_site_label
  _atom_site_occupancy
  _atom_site_fract_x
  _atom_site_fract_y
  _atom_site_fract_z
  _atom_site_thermal_displace_type
  _atom_site_B_iso_or_equiv
  _atom_site_type_symbol
  _atom_site_charge
         C1        1.0000    0.31240   0.17360   0.59980   Biso      1.000     C          0.625118  
         C2        1.0000    0.14310   0.29390   0.53660   Biso      1.000     C          -0.095117           
         C3        1.0000    0.12380   0.39100   0.53520   Biso      1.000     C          -0.140634           
         C4        1.0000    0.22190   0.83520   0.33300   Biso      1.000     C          0.677013  
         C5        1.0000    0.17510   0.73500   0.23440   Biso      1.000     C          -0.032314           
         C6        1.0000    0.28890   0.68860   0.19060   Biso      1.000     C          -0.093361           
         C7        1.0000    0.24440   0.59700   0.09860   Biso      1.000     C          -0.153928           
         C8        1.0000    0.08290   0.54950   0.04820   Biso      1.000     C          0.081219  
         C9        1.0000    0.97310   0.60020   0.09220   Biso      1.000     C          -0.153776           
         C10       1.0000    0.01610   0.69260   0.18360   Biso      1.000     C          -0.100012           
         C11       1.0000    0.62490   0.12900   0.42700   Biso      1.000     C          0.702363  
         C12       1.0000    0.61650   0.22720   0.41120   Biso      1.000     C          -0.038154           
         C13       1.0000    0.70690   0.24700   0.35900   Biso      1.000     C          -0.102389           
         C14       1.0000    0.70480   0.34200   0.34980   Biso      1.000     C          -0.158011           
         C15       1.0000    0.60990   0.41680   0.39200   Biso      1.000     C          0.072242  
         C16       1.0000    0.27180   0.28190   0.60860   Biso      1.000     C          -0.025627           
         C17       1.0000    0.51300   0.39340   0.43960   Biso      1.000     C          -0.148397           
         C18       1.0000    0.61750   0.52100   0.38720   Biso      1.000     C          0.081661  
         C19       1.0000    0.66230   0.52970   0.30980   Biso      1.000     C          -0.154316           
         C20       1.0000    0.68950   0.63000   0.31260   Biso      1.000     C          -0.093964           
         C21       1.0000    0.66320   0.71810   0.39140   Biso      1.000     C          -0.026998           
         C22       1.0000    0.60650   0.70610   0.46340   Biso      1.000     C          -0.094421           
         C23       1.0000    0.58860   0.60900   0.46480   Biso      1.000     C          -0.13963  
         C24       1.0000    0.71260   0.82640   0.40020   Biso      1.000     C          0.627439  
         C25       1.0000    0.88890   0.16480   0.66700   Biso      1.000     C          0.676227  
         C26       1.0000    0.94070   0.26500   0.76560   Biso      1.000     C          -0.033691           
         C27       1.0000    0.09830   0.31140   0.80940   Biso      1.000     C          -0.092323           
         C28       1.0000    0.14580   0.40300   0.90140   Biso      1.000     C          -0.154717           
         C29       1.0000    0.03470   0.45050   0.95180   Biso      1.000     C          0.080771  
         C30       1.0000    0.88090   0.39980   0.90780   Biso      1.000     C          -0.154371           
         C31       1.0000    0.83250   0.30740   0.81640   Biso      1.000     C          -0.09786  
         C32       1.0000    0.51290   0.29850   0.44860   Biso      1.000     C          -0.093003           
         C33       1.0000    0.35250   0.47030   0.69020   Biso      1.000     C          -0.153309           
         C34       1.0000    0.37690   0.37000   0.68740   Biso      1.000     C          -0.09548  
         C35       1.0000    0.06430   0.70150   0.55140   Biso      1.000     C          -0.092312           
         C36       1.0000    0.07340   0.60660   0.56040   Biso      1.000     C          -0.150662           
         C37       1.0000    0.21790   0.58320   0.60800   Biso      1.000     C          0.073885  
         C38       1.0000    0.35500   0.65800   0.65020   Biso      1.000     C          -0.158799           
         C39       1.0000    0.34790   0.75300   0.64100   Biso      1.000     C          -0.101324           
         C40       1.0000    0.20530   0.77280   0.58880   Biso      1.000     C          -0.038461           
         C41       1.0000    0.19790   0.87100   0.57300   Biso      1.000     C          0.702961  
         C42       1.0000    0.23030   0.47900   0.61280   Biso      1.000     C          0.080738  
         H1        1.0000    0.86400   0.57210   0.05980   Biso      1.000     H          0.106491  
         H2        1.0000    0.32390   0.56660   0.07000   Biso      1.000     H          0.108586  
         H3        1.0000    0.39740   0.71840   0.22260   Biso      1.000     H          0.113023  
         H4        1.0000    0.04150   0.39660   0.48360   Biso      1.000     H          0.115656  
         H5        1.0000    0.06740   0.23550   0.48780   Biso      1.000     H          0.092011  
         H6        1.0000    0.97970   0.55870   0.53360   Biso      1.000     H          0.110635  
         H7        1.0000    0.41880   0.53040   0.74440   Biso      1.000     H          0.118531  
         H8        1.0000    0.96490   0.71680   0.52080   Biso      1.000     H          0.110627  
         H9        1.0000    0.45320   0.64510   0.68520   Biso      1.000     H          0.113048  
         H10       1.0000    0.44070   0.80220   0.67060   Biso      1.000     H          0.11267   
         H11       1.0000    0.46190   0.36350   0.73760   Biso      1.000     H          0.123649  
         H12       1.0000    0.93600   0.72560   0.21000   Biso      1.000     H          0.120437  
         H13       1.0000    0.44610   0.44130   0.46640   Biso      1.000     H          0.110157  
         H14       1.0000    0.76800   0.35490   0.31480   Biso      1.000     H          0.112831  
         H15       1.0000    0.72600   0.27440   0.79000   Biso      1.000     H          0.119531  
         H16       1.0000    0.77010   0.19780   0.32940   Biso      1.000     H          0.113336  
         H17       1.0000    0.25390   0.43340   0.93000   Biso      1.000     H          0.109006  
         H18       1.0000    0.17480   0.28160   0.77740   Biso      1.000     H          0.112856  
         H19       1.0000    0.80420   0.42790   0.94020   Biso      1.000     H          0.106231  
         H20       1.0000    0.57960   0.76450   0.51220   Biso      1.000     H          0.091127  
         H21       1.0000    0.72430   0.63650   0.26240   Biso      1.000     H          0.123972  
         H22       1.0000    0.67440   0.46960   0.25560   Biso      1.000     H          0.118086  
         H23       1.0000    0.44410   0.28320   0.47920   Biso      1.000     H          0.11048   
         H24       1.0000    0.55790   0.60340   0.51640   Biso      1.000     H          0.11508   
         O1        1.0000    0.70840   0.90730   0.48040   Biso      1.000     O          -0.777479           
         O2        1.0000    0.10750   0.87580   0.36220   Biso      1.000     O          -0.715632           
         O3        1.0000    0.76970   0.83090   0.33640   Biso      1.000     O          -0.603539           
         O4        1.0000    0.51100   0.09860   0.44740   Biso      1.000     O          -0.652545           
         O5        1.0000    0.74270   0.08360   0.41560   Biso      1.000     O          -0.736794           
         O6        1.0000    0.36940   0.87050   0.37740   Biso      1.000     O          -0.66057  
         O7        1.0000    0.74530   0.12420   0.63780   Biso      1.000     O          -0.71484  
         O8        1.0000    0.22800   0.09270   0.51960   Biso      1.000     O          -0.776248           
         O9        1.0000    0.06360   0.90140   0.55260   Biso      1.000     O          -0.652759           
         O10       1.0000    0.32710   0.91640   0.58440   Biso      1.000     O          -0.736991           
         O11       1.0000    0.99200   0.12950   0.62260   Biso      1.000     O          -0.660212           
         O12       1.0000    0.43330   0.16910   0.66360   Biso      1.000     O          -0.602505           
         Sm1       1.0000    0.95934   0.99451   0.45432   Biso      1.000     Sm          2.144182  
         Sm2       1.0000    0.50502   0.00549   0.54568   Biso      1.000     Sm          2.1436 