
##########################################################################
#               Crystallographic Information Format file
#               Produced by PyCifRW module
#
#  This is a CIF file.  CIF has been adopted by the International
#  Union of Crystallography as the standard for data archiving and
#  transmission.
#
#  For information on this file format, follow the CIF links at
#  http://www.iucr.org
##########################################################################

data_image0

_cell_length_a                          8.655
_cell_length_b                          14.105
_cell_length_c                          15.1056
_cell_angle_alpha                       115.144
_cell_angle_beta                        106.647
_cell_angle_gamma                       90
_symmetry_space_group_name_H-M          'P 1'
_symmetry_int_tables_number             1
loop_
  _symmetry_equiv_pos_as_xyz
         'x, y, z' 
loop_
  _atom_site_label
  _atom_site_occupancy
  _atom_site_fract_x
  _atom_site_fract_y
  _atom_site_fract_z
  _atom_site_thermal_displace_type
  _atom_site_B_iso_or_equiv
  _atom_site_type_symbol
  _atom_site_charge
         C1        1.0000    0.30880   0.17310   0.59840   Biso      1.000     C          0.5744130000000001  
         C2        1.0000    0.96920   0.60220   0.08880   Biso      1.000     C          -0.15100999999999998          
         C3        1.0000    0.07920   0.54910   0.04640   Biso      1.000     C          0.083221  
         C4        1.0000    0.25210   0.59620   0.09620   Biso      1.000     C          -0.144781           
         C5        1.0000    0.19980   0.87240   0.57460   Biso      1.000     C          0.60229   
         C6        1.0000    0.20160   0.77200   0.58940   Biso      1.000     C          -0.010064           
         C7        1.0000    0.35120   0.75390   0.63960   Biso      1.000     C          -0.10729000000000001          
         C8        1.0000    0.35370   0.65820   0.65100   Biso      1.000     C          -0.154336           
         C9        1.0000    0.21960   0.58400   0.60660   Biso      1.000     C          0.07752200000000001           
         C10       1.0000    0.07160   0.60740   0.55920   Biso      1.000     C          -0.14066800000000002          
         C11       1.0000    0.06460   0.70280   0.55320   Biso      1.000     C          -0.091533           
         C12       1.0000    0.22850   0.47840   0.61100   Biso      1.000     C          0.07737100000000001           
         C13       1.0000    0.35420   0.47120   0.69200   Biso      1.000     C          -0.153878           
         C14       1.0000    0.37220   0.37020   0.68640   Biso      1.000     C          -0.101609           
         C15       1.0000    0.26860   0.28280   0.60940   Biso      1.000     C          -0.010517           
         C16       1.0000    0.14170   0.29230   0.53460   Biso      1.000     C          -0.089255           
         C17       1.0000    0.12690   0.38970   0.53360   Biso      1.000     C          -0.141747           
         C18       1.0000    0.28760   0.68740   0.19220   Biso      1.000     C          -0.094803           
         C19       1.0000    0.01880   0.68870   0.18580   Biso      1.000     C          -0.0732   
         C20       1.0000    0.62520   0.12760   0.42540   Biso      1.000     C          0.603487  
         C21       1.0000    0.61220   0.22800   0.41060   Biso      1.000     C          -0.010854           
         C22       1.0000    0.71160   0.24610   0.36040   Biso      1.000     C          -0.108425           
         C23       1.0000    0.83300   0.31130   0.81420   Biso      1.000     C          -0.073167           
         C24       1.0000    0.88040   0.39780   0.91120   Biso      1.000     C          -0.151482           
         C25       1.0000    0.03280   0.45090   0.95360   Biso      1.000     C          0.083564  
         C26       1.0000    0.15590   0.40380   0.90380   Biso      1.000     C          -0.145282           
         C27       1.0000    0.09540   0.31260   0.80780   Biso      1.000     C          -0.09597699999999999          
         C28       1.0000    0.94010   0.26420   0.76460   Biso      1.000     C          -0.0036780000000000003        
         C29       1.0000    0.88900   0.16640   0.66720   Biso      1.000     C          0.603402  
         C30       1.0000    0.71040   0.82690   0.40160   Biso      1.000     C          0.574765  
         C31       1.0000    0.22180   0.83360   0.33280   Biso      1.000     C          0.6030260000000001  
         C32       1.0000    0.59330   0.61030   0.46640   Biso      1.000     C          -0.140992           
         C33       1.0000    0.65920   0.71720   0.39060   Biso      1.000     C          -0.011021           
         C34       1.0000    0.68580   0.62980   0.31360   Biso      1.000     C          -0.101614           
         C35       1.0000    0.66220   0.52880   0.30800   Biso      1.000     C          -0.15336  
         C36       1.0000    0.61750   0.52160   0.38900   Biso      1.000     C          0.076333  
         C37       1.0000    0.51140   0.29720   0.44680   Biso      1.000     C          -0.091142           
         C38       1.0000    0.51240   0.39260   0.44080   Biso      1.000     C          -0.142406           
         C39       1.0000    0.61300   0.41600   0.39340   Biso      1.000     C          0.078368  
         C40       1.0000    0.70270   0.34180   0.34900   Biso      1.000     C          -0.153382           
         C41       1.0000    0.60710   0.70770   0.46540   Biso      1.000     C          -0.088325           
         C42       1.0000    0.17550   0.73580   0.23540   Biso      1.000     C          -0.004162           
         Eu1       1.0000    0.50507   0.00551   0.54554   Biso      1.000     Eu          1.3710280000000001  
         Eu2       1.0000    0.95953   0.99449   0.45446   Biso      1.000     Eu          1.371583  
         H1        1.0000    0.72290   0.28460   0.78200   Biso      1.000     H          0.115377  
         H2        1.0000    0.44520   0.80160   0.66460   Biso      1.000     H          0.12485399999999999           
         H3        1.0000    0.44970   0.64640   0.68960   Biso      1.000     H          0.112489  
         H4        1.0000    0.97720   0.55920   0.53180   Biso      1.000     H          0.11070799999999999           
         H5        1.0000    0.96440   0.71950   0.52400   Biso      1.000     H          0.11227000000000001           
         H6        1.0000    0.42140   0.53110   0.74640   Biso      1.000     H          0.121887  
         H7        1.0000    0.06650   0.23340   0.48520   Biso      1.000     H          0.11026300000000001           
         H8        1.0000    0.04750   0.39490   0.48000   Biso      1.000     H          0.11172   
         H9        1.0000    0.39640   0.71600   0.22800   Biso      1.000     H          0.108399  
         H10       1.0000    0.33230   0.56800   0.06680   Biso      1.000     H          0.12484200000000001           
         H11       1.0000    0.85870   0.58060   0.05280   Biso      1.000     H          0.116823  
         H12       1.0000    0.45740   0.36260   0.73600   Biso      1.000     H          0.11661700000000001           
         H13       1.0000    0.78060   0.19840   0.33540   Biso      1.000     H          0.125532  
         H14       1.0000    0.94090   0.71540   0.21800   Biso      1.000     H          0.11554   
         H15       1.0000    0.26550   0.43200   0.93320   Biso      1.000     H          0.125603  
         H16       1.0000    0.16840   0.28400   0.77200   Biso      1.000     H          0.108625  
         H17       1.0000    0.56750   0.60510   0.52000   Biso      1.000     H          0.11218299999999999           
         H18       1.0000    0.58130   0.76660   0.51480   Biso      1.000     H          0.109607  
         H19       1.0000    0.80590   0.41940   0.94720   Biso      1.000     H          0.11701600000000001           
         H20       1.0000    0.67500   0.46890   0.25360   Biso      1.000     H          0.12113099999999999           
         H21       1.0000    0.44040   0.28050   0.47600   Biso      1.000     H          0.111804  
         H22       1.0000    0.44540   0.44080   0.46820   Biso      1.000     H          0.11188800000000002           
         H23       1.0000    0.76010   0.35360   0.31040   Biso      1.000     H          0.111805  
         H24       1.0000    0.72140   0.63740   0.26400   Biso      1.000     H          0.116638  
         O1        1.0000    0.98960   0.12840   0.62200   Biso      1.000     O          -0.5321600000000001           
         O2        1.0000    0.77070   0.83090   0.33600   Biso      1.000     O          -0.5471189999999999           
         O3        1.0000    0.71030   0.90600   0.48080   Biso      1.000     O          -0.5963069999999999           
         O4        1.0000    0.50660   0.09810   0.44620   Biso      1.000     O          -0.51926  
         O5        1.0000    0.74570   0.08220   0.41700   Biso      1.000     O          -0.5806359999999999           
         O6        1.0000    0.43470   0.16910   0.66400   Biso      1.000     O          -0.54656  
         O7        1.0000    0.36760   0.87160   0.37800   Biso      1.000     O          -0.5322100000000001           
         O8        1.0000    0.22950   0.09400   0.51920   Biso      1.000     O          -0.5963510000000001           
         O9        1.0000    0.06040   0.90190   0.55380   Biso      1.000     O          -0.518814           
         O10       1.0000    0.32870   0.91780   0.58300   Biso      1.000     O          -0.5806100000000001           
         O11       1.0000    0.10620   0.87680   0.36160   Biso      1.000     O          -0.5318579999999999           
         O12       1.0000    0.74460   0.12320   0.63840   Biso      1.000     O          -0.532153 