
##########################################################################
#               Crystallographic Information Format file
#               Produced by PyCifRW module
#
#  This is a CIF file.  CIF has been adopted by the International
#  Union of Crystallography as the standard for data archiving and
#  transmission.
#
#  For information on this file format, follow the CIF links at
#  http://www.iucr.org
##########################################################################

data_image0

_cell_length_a                          8.723
_cell_length_b                          14.179
_cell_length_c                          15.0312
_cell_angle_alpha                       114.83
_cell_angle_beta                        106.868
_cell_angle_gamma                       90
_symmetry_space_group_name_H-M          'P 1'
_symmetry_int_tables_number             1
loop_
  _symmetry_equiv_pos_as_xyz
         'x, y, z' 
loop_
  _atom_site_label
  _atom_site_occupancy
  _atom_site_fract_x
  _atom_site_fract_y
  _atom_site_fract_z
  _atom_site_thermal_displace_type
  _atom_site_B_iso_or_equiv
  _atom_site_type_symbol
  _atom_site_charge
         C1        1.0000    0.71160   0.17550   0.60240   Biso      1.000     C          0.627418  
         C2        1.0000    0.77490   0.37040   0.68840   Biso      1.000     C          -0.094934           
         C3        1.0000    0.67210   0.28240   0.60960   Biso      1.000     C          -0.023557           
         C4        1.0000    0.54380   0.29420   0.53600   Biso      1.000     C          -0.092279           
         C5        1.0000    0.52620   0.38810   0.53460   Biso      1.000     C          -0.138232           
         C6        1.0000    0.27700   0.39530   0.91080   Biso      1.000     C          -0.151292           
         C7        1.0000    0.61650   0.83330   0.33080   Biso      1.000     C          0.674351  
         C8        1.0000    0.57280   0.73520   0.23600   Biso      1.000     C          -0.033666           
         C9        1.0000    0.68470   0.68600   0.19220   Biso      1.000     C          -0.08787  
         C10       1.0000    0.64550   0.59450   0.10100   Biso      1.000     C          -0.157798           
         C11       1.0000    0.47930   0.54610   0.04860   Biso      1.000     C          0.074921  
         C12       1.0000    0.36620   0.60470   0.08920   Biso      1.000     C          -0.151906           
         C13       1.0000    0.41280   0.69060   0.18360   Biso      1.000     C          -0.095325           
         C14       1.0000    0.02290   0.13180   0.42520   Biso      1.000     C          0.685226  
         C15       1.0000    0.01390   0.23020   0.41140   Biso      1.000     C          -0.03206  
         C16       1.0000    0.11210   0.25080   0.36240   Biso      1.000     C          -0.10831  
         C17       1.0000    0.10760   0.34530   0.35220   Biso      1.000     C          -0.155045           
         C18       1.0000    0.01220   0.41940   0.39320   Biso      1.000     C          0.076425  
         C19       1.0000    0.91090   0.39440   0.43760   Biso      1.000     C          -0.149585           
         C20       1.0000    0.90970   0.29870   0.44600   Biso      1.000     C          -0.091922           
         C21       1.0000    0.01740   0.52140   0.38800   Biso      1.000     C          0.080193  
         C22       1.0000    0.06190   0.52980   0.30840   Biso      1.000     C          -0.156984           
         C23       1.0000    0.08650   0.62960   0.31160   Biso      1.000     C          -0.094083           
         C24       1.0000    0.06250   0.71760   0.39040   Biso      1.000     C          -0.026282           
         C25       1.0000    0.00780   0.70580   0.46400   Biso      1.000     C          -0.090424           
         C26       1.0000    0.99160   0.61190   0.46540   Biso      1.000     C          -0.13896  
         C27       1.0000    0.10920   0.82450   0.39760   Biso      1.000     C          0.630108  
         C28       1.0000    0.28570   0.16670   0.66920   Biso      1.000     C          0.677137  
         C29       1.0000    0.33680   0.26480   0.76400   Biso      1.000     C          -0.032532           
         C30       1.0000    0.49250   0.31400   0.80780   Biso      1.000     C          -0.085569           
         C31       1.0000    0.75350   0.47020   0.69160   Biso      1.000     C          -0.157284           
         C32       1.0000    0.62940   0.47860   0.61200   Biso      1.000     C          0.079217  
         C33       1.0000    0.46370   0.70130   0.55400   Biso      1.000     C          -0.089457           
         C34       1.0000    0.47330   0.60560   0.56240   Biso      1.000     C          -0.150254           
         C35       1.0000    0.22920   0.30940   0.81640   Biso      1.000     C          -0.096489           
         C36       1.0000    0.54450   0.40550   0.89900   Biso      1.000     C          -0.15602  
         C37       1.0000    0.59770   0.86820   0.57480   Biso      1.000     C          0.681961  
         C38       1.0000    0.43070   0.45390   0.95140   Biso      1.000     C          0.071907  
         C39       1.0000    0.74970   0.74920   0.63760   Biso      1.000     C          -0.108295           
         C40       1.0000    0.61900   0.58060   0.60680   Biso      1.000     C          0.076447  
         C41       1.0000    0.75540   0.65470   0.64780   Biso      1.000     C          -0.15401  
         C42       1.0000    0.60250   0.76980   0.58860   Biso      1.000     C          -0.030985           
         H1        1.0000    0.84310   0.79670   0.66340   Biso      1.000     H          0.116483  
         H2        1.0000    0.85330   0.64160   0.68280   Biso      1.000     H          0.111119  
         H3        1.0000    0.37940   0.55870   0.53720   Biso      1.000     H          0.111531  
         H4        1.0000    0.36400   0.71790   0.52540   Biso      1.000     H          0.113524  
         H5        1.0000    0.82050   0.52990   0.74580   Biso      1.000     H          0.119689  
         H6        1.0000    0.85840   0.36380   0.73960   Biso      1.000     H          0.120773  
         H7        1.0000    0.46850   0.23600   0.48680   Biso      1.000     H          0.092119  
         H8        1.0000    0.44420   0.39250   0.48140   Biso      1.000     H          0.111228  
         H9        1.0000    0.79280   0.71540   0.22520   Biso      1.000     H          0.109555  
         H10       1.0000    0.72560   0.56430   0.07360   Biso      1.000     H          0.116634  
         H11       1.0000    0.33440   0.71970   0.21360   Biso      1.000     H          0.11711   
         H12       1.0000    0.17970   0.20330   0.33660   Biso      1.000     H          0.116674  
         H13       1.0000    0.84220   0.44130   0.46280   Biso      1.000     H          0.111877  
         H14       1.0000    0.83860   0.28210   0.47460   Biso      1.000     H          0.115142  
         H15       1.0000    0.07470   0.47010   0.25420   Biso      1.000     H          0.119317  
         H16       1.0000    0.11880   0.63620   0.26040   Biso      1.000     H          0.120625  
         H17       1.0000    0.98170   0.76400   0.51320   Biso      1.000     H          0.091593  
         H18       1.0000    0.96280   0.60750   0.51860   Biso      1.000     H          0.111441  
         H19       1.0000    0.56760   0.28460   0.77480   Biso      1.000     H          0.107187  
         H20       1.0000    0.65200   0.43570   0.92640   Biso      1.000     H          0.115798  
         H21       1.0000    0.20560   0.41510   0.94880   Biso      1.000     H          0.112347  
         H22       1.0000    0.12080   0.28030   0.78640   Biso      1.000     H          0.116546  
         H23       1.0000    0.25680   0.58490   0.05120   Biso      1.000     H          0.111902  
         H24       1.0000    0.17050   0.35840   0.31720   Biso      1.000     H          0.111402  
         Nd1       1.0000    0.90417   0.00504   0.54618   Biso      1.000     Nd          2.144569  
         Nd2       1.0000    0.35799   0.99496   0.45382   Biso      1.000     Nd          2.143931  
         O1        1.0000    0.72390   0.91540   0.58560   Biso      1.000     O          -0.716832           
         O2        1.0000    0.45800   0.89850   0.55120   Biso      1.000     O          -0.668335           
         O3        1.0000    0.62760   0.09580   0.52160   Biso      1.000     O          -0.77106  
         O4        1.0000    0.83270   0.16990   0.66540   Biso      1.000     O          -0.607298           
         O5        1.0000    0.76610   0.87110   0.37520   Biso      1.000     O          -0.678625           
         O6        1.0000    0.50740   0.87630   0.36160   Biso      1.000     O          -0.701276           
         O7        1.0000    0.13830   0.08460   0.41440   Biso      1.000     O          -0.717479           
         O8        1.0000    0.90680   0.10150   0.44880   Biso      1.000     O          -0.669981           
         O9        1.0000    0.10600   0.90420   0.47840   Biso      1.000     O          -0.771541           
         O10       1.0000    0.16730   0.83010   0.33460   Biso      1.000     O          -0.608875           
         O11       1.0000    0.39090   0.12890   0.62480   Biso      1.000     O          -0.679045           
         O12       1.0000    0.14580   0.12370   0.63840   Biso      1.000     O          -0.703672 