
##########################################################################
#               Crystallographic Information Format file
#               Produced by PyCifRW module
#
#  This is a CIF file.  CIF has been adopted by the International
#  Union of Crystallography as the standard for data archiving and
#  transmission.
#
#  For information on this file format, follow the CIF links at
#  http://www.iucr.org
##########################################################################

data_image0

_cell_length_a                          8.622
_cell_length_b                          14.066
_cell_length_c                          15.0818
_cell_angle_alpha                       115.214
_cell_angle_beta                        106.609
_cell_angle_gamma                       90
_symmetry_space_group_name_H-M          'P 1'
_symmetry_int_tables_number             1
loop_
  _symmetry_equiv_pos_as_xyz
         'x, y, z' 
loop_
  _atom_site_label
  _atom_site_occupancy
  _atom_site_fract_x
  _atom_site_fract_y
  _atom_site_fract_z
  _atom_site_thermal_displace_type
  _atom_site_B_iso_or_equiv
  _atom_site_type_symbol
  _atom_site_charge
         C1        1.0000    0.31100   0.17420   0.59900   Biso      1.000     C          0.627684  
         C2        1.0000    0.96950   0.60060   0.08900   Biso      1.000     C          -0.158472           
         C3        1.0000    0.08310   0.54800   0.04820   Biso      1.000     C          0.081938  
         C4        1.0000    0.24830   0.59580   0.10060   Biso      1.000     C          -0.159847           
         C5        1.0000    0.20000   0.87140   0.57360   Biso      1.000     C          0.68626   
         C6        1.0000    0.20340   0.77370   0.59120   Biso      1.000     C          -0.032570999999999996         
         C7        1.0000    0.35040   0.75420   0.63980   Biso      1.000     C          -0.110724           
         C8        1.0000    0.35590   0.65920   0.65180   Biso      1.000     C          -0.157468           
         C9        1.0000    0.21680   0.58420   0.60900   Biso      1.000     C          0.072641  
         C10       1.0000    0.07150   0.60720   0.56100   Biso      1.000     C          -0.147329           
         C11       1.0000    0.06140   0.70290   0.55280   Biso      1.000     C          -0.089347           
         C12       1.0000    0.22870   0.48010   0.61340   Biso      1.000     C          0.07978099999999999           
         C13       1.0000    0.35620   0.47190   0.69240   Biso      1.000     C          -0.154582           
         C14       1.0000    0.37470   0.37180   0.68740   Biso      1.000     C          -0.090758           
         C15       1.0000    0.26860   0.28240   0.60860   Biso      1.000     C          -0.028968           
         C16       1.0000    0.14030   0.29190   0.53460   Biso      1.000     C          -0.092269           
         C17       1.0000    0.12250   0.39040   0.53500   Biso      1.000     C          -0.142737           
         C18       1.0000    0.28880   0.68890   0.19360   Biso      1.000     C          -0.08945399999999999          
         C19       1.0000    0.01690   0.68990   0.18380   Biso      1.000     C          -0.093038           
         C20       1.0000    0.62640   0.12860   0.42640   Biso      1.000     C          0.6880029999999999  
         C21       1.0000    0.61220   0.22630   0.40880   Biso      1.000     C          -0.033682           
         C22       1.0000    0.71060   0.24580   0.36020   Biso      1.000     C          -0.109571           
         C23       1.0000    0.83310   0.31010   0.81620   Biso      1.000     C          -0.092989           
         C24       1.0000    0.88050   0.39940   0.91100   Biso      1.000     C          -0.157755           
         C25       1.0000    0.03490   0.45200   0.95180   Biso      1.000     C          0.079237  
         C26       1.0000    0.14770   0.40420   0.89940   Biso      1.000     C          -0.157113           
         C27       1.0000    0.09520   0.31110   0.80640   Biso      1.000     C          -0.09210499999999999          
         C28       1.0000    0.94310   0.26550   0.76420   Biso      1.000     C          -0.029098000000000002         
         C29       1.0000    0.89000   0.16650   0.66740   Biso      1.000     C          0.685888  
         C30       1.0000    0.71200   0.82580   0.40100   Biso      1.000     C          0.627396  
         C31       1.0000    0.22260   0.83350   0.33260   Biso      1.000     C          0.684663  
         C32       1.0000    0.58750   0.60960   0.46500   Biso      1.000     C          -0.144455           
         C33       1.0000    0.66000   0.71760   0.39140   Biso      1.000     C          -0.029227           
         C34       1.0000    0.68730   0.62820   0.31260   Biso      1.000     C          -0.092138           
         C35       1.0000    0.66380   0.52810   0.30760   Biso      1.000     C          -0.15299400000000002          
         C36       1.0000    0.61530   0.51990   0.38660   Biso      1.000     C          0.079197  
         C37       1.0000    0.50860   0.29710   0.44720   Biso      1.000     C          -0.089326           
         C38       1.0000    0.51050   0.39280   0.43900   Biso      1.000     C          -0.147696           
         C39       1.0000    0.60780   0.41580   0.39100   Biso      1.000     C          0.07266900000000001           
         C40       1.0000    0.70410   0.34080   0.34820   Biso      1.000     C          -0.157656           
         C41       1.0000    0.60570   0.70810   0.46540   Biso      1.000     C          -0.09109500000000001          
         C42       1.0000    0.17890   0.73450   0.23580   Biso      1.000     C          -0.031403           
         Gd1       1.0000    0.50555   0.00553   0.54536   Biso      1.000     Gd          2.103923  
         Gd2       1.0000    0.96019   0.99447   0.45464   Biso      1.000     Gd          2.104146  
         H1        1.0000    0.72410   0.27930   0.78680   Biso      1.000     H          0.113915  
         H2        1.0000    0.44490   0.80180   0.66460   Biso      1.000     H          0.117528  
         H3        1.0000    0.45340   0.64690   0.68880   Biso      1.000     H          0.113148  
         H4        1.0000    0.97820   0.55820   0.53320   Biso      1.000     H          0.10929000000000001           
         H5        1.0000    0.96110   0.71850   0.52200   Biso      1.000     H          0.113657  
         H6        1.0000    0.42560   0.53170   0.74600   Biso      1.000     H          0.123195  
         H7        1.0000    0.06510   0.23260   0.48460   Biso      1.000     H          0.095775  
         H8        1.0000    0.04020   0.39640   0.48300   Biso      1.000     H          0.11373299999999999           
         H9        1.0000    0.39770   0.71930   0.22680   Biso      1.000     H          0.10950499999999999           
         H10       1.0000    0.33000   0.56530   0.07320   Biso      1.000     H          0.11238800000000002           
         H11       1.0000    0.85890   0.57650   0.05320   Biso      1.000     H          0.112727  
         H12       1.0000    0.45860   0.36450   0.73760   Biso      1.000     H          0.1199    
         H13       1.0000    0.78030   0.19820   0.33540   Biso      1.000     H          0.11775   
         H14       1.0000    0.93730   0.72070   0.21320   Biso      1.000     H          0.114283  
         H15       1.0000    0.25680   0.43470   0.92680   Biso      1.000     H          0.111738  
         H16       1.0000    0.17090   0.28070   0.77320   Biso      1.000     H          0.10961099999999999           
         H17       1.0000    0.55720   0.60360   0.51700   Biso      1.000     H          0.11479600000000001           
         H18       1.0000    0.58050   0.76740   0.51540   Biso      1.000     H          0.095447  
         H19       1.0000    0.80570   0.42350   0.94680   Biso      1.000     H          0.112113  
         H20       1.0000    0.67960   0.46830   0.25400   Biso      1.000     H          0.12239000000000001           
         H21       1.0000    0.43910   0.28150   0.47800   Biso      1.000     H          0.113718  
         H22       1.0000    0.44500   0.44180   0.46680   Biso      1.000     H          0.109899  
         H23       1.0000    0.76460   0.35310   0.31120   Biso      1.000     H          0.112803  
         H24       1.0000    0.72100   0.63550   0.26240   Biso      1.000     H          0.12099700000000001           
         O1        1.0000    0.98820   0.12650   0.62160   Biso      1.000     O          -0.652525           
         O2        1.0000    0.77060   0.83230   0.33820   Biso      1.000     O          -0.601901           
         O3        1.0000    0.70670   0.90760   0.48120   Biso      1.000     O          -0.768309           
         O4        1.0000    0.50730   0.09850   0.44880   Biso      1.000     O          -0.668984           
         O5        1.0000    0.74310   0.08330   0.41660   Biso      1.000     O          -0.697665           
         O6        1.0000    0.43240   0.16770   0.66180   Biso      1.000     O          -0.601493           
         O7        1.0000    0.36660   0.87350   0.37840   Biso      1.000     O          -0.652043           
         O8        1.0000    0.22550   0.09240   0.51880   Biso      1.000     O          -0.768858           
         O9        1.0000    0.05850   0.90150   0.55120   Biso      1.000     O          -0.668143           
         O10       1.0000    0.32650   0.91670   0.58340   Biso      1.000     O          -0.696626           
         O11       1.0000    0.10660   0.87500   0.36360   Biso      1.000     O          -0.725198           
         O12       1.0000    0.74300   0.12500   0.63640   Biso      1.000     O          -0.726118 