
##########################################################################
#               Crystallographic Information Format file
#               Produced by PyCifRW module
#
#  This is a CIF file.  CIF has been adopted by the International
#  Union of Crystallography as the standard for data archiving and
#  transmission.
#
#  For information on this file format, follow the CIF links at
#  http://www.iucr.org
##########################################################################

data_image0

_cell_length_a                          8.842
_cell_length_b                          14.318
_cell_length_c                          14.498
_cell_angle_alpha                       113.084
_cell_angle_beta                        107.754
_cell_angle_gamma                       90
_symmetry_space_group_name_H-M          'P 1'
_symmetry_int_tables_number             1
loop_
  _symmetry_equiv_pos_as_xyz
         'x, y, z' 
loop_
  _atom_site_label
  _atom_site_occupancy
  _atom_site_fract_x
  _atom_site_fract_y
  _atom_site_fract_z
  _atom_site_thermal_displace_type
  _atom_site_B_iso_or_equiv
  _atom_site_type_symbol
  _atom_site_charge
         C1        1.0000    0.31070   0.17360   0.60380   Biso      1.000     C          0.6040840000000001  
         C2        1.0000    0.37440   0.36530   0.69300   Biso      1.000     C          -0.09631100000000001          
         C3        1.0000    0.27120   0.27950   0.61100   Biso      1.000     C          -0.023349           
         C4        1.0000    0.15100   0.29100   0.53500   Biso      1.000     C          -0.099963           
         C5        1.0000    0.12830   0.38610   0.53380   Biso      1.000     C          -0.14058199999999998          
         C6        1.0000    0.86660   0.40290   0.90520   Biso      1.000     C          -0.15509900000000001          
         C7        1.0000    0.21110   0.83780   0.32400   Biso      1.000     C          0.6541710000000001  
         C8        1.0000    0.16620   0.73870   0.22620   Biso      1.000     C          -0.037965           
         C9        1.0000    0.27530   0.68820   0.18460   Biso      1.000     C          -0.08557000000000001          
         C10       1.0000    0.23340   0.59690   0.09880   Biso      1.000     C          -0.145181           
         C11       1.0000    0.07420   0.54950   0.04640   Biso      1.000     C          0.072296  
         C12       1.0000    0.96140   0.59710   0.09480   Biso      1.000     C          -0.154898           
         C13       1.0000    0.00710   0.69180   0.17960   Biso      1.000     C          -0.103598           
         C14       1.0000    0.61370   0.13780   0.42540   Biso      1.000     C          0.647313  
         C15       1.0000    0.61210   0.23860   0.41240   Biso      1.000     C          -0.040298           
         C16       1.0000    0.70790   0.26170   0.35940   Biso      1.000     C          -0.096278           
         C17       1.0000    0.70610   0.35240   0.35260   Biso      1.000     C          -0.150286           
         C18       1.0000    0.61310   0.42550   0.39420   Biso      1.000     C          0.07102   
         C19       1.0000    0.51070   0.40000   0.44140   Biso      1.000     C          -0.149793           
         C20       1.0000    0.51160   0.30680   0.44980   Biso      1.000     C          -0.09400700000000001          
         C21       1.0000    0.61890   0.52610   0.38700   Biso      1.000     C          0.080822  
         C22       1.0000    0.65230   0.53740   0.30540   Biso      1.000     C          -0.14896900000000002          
         C23       1.0000    0.68140   0.63470   0.30700   Biso      1.000     C          -0.098666           
         C24       1.0000    0.66020   0.72050   0.38900   Biso      1.000     C          -0.021748           
         C25       1.0000    0.61600   0.70900   0.46500   Biso      1.000     C          -0.100233           
         C26       1.0000    0.59450   0.61390   0.46620   Biso      1.000     C          -0.137125           
         C27       1.0000    0.70690   0.82640   0.39620   Biso      1.000     C          0.6054430000000001  
         C28       1.0000    0.88710   0.16220   0.67600   Biso      1.000     C          0.651126  
         C29       1.0000    0.94000   0.26130   0.77380   Biso      1.000     C          -0.035579           
         C30       1.0000    0.09070   0.31180   0.81540   Biso      1.000     C          -0.087643           
         C31       1.0000    0.34690   0.46260   0.69460   Biso      1.000     C          -0.15089  
         C32       1.0000    0.23190   0.47390   0.61300   Biso      1.000     C          0.08082400000000001           
         C33       1.0000    0.06180   0.69320   0.55020   Biso      1.000     C          -0.094298           
         C34       1.0000    0.06930   0.60000   0.55860   Biso      1.000     C          -0.14846900000000002          
         C35       1.0000    0.82750   0.30820   0.82040   Biso      1.000     C          -0.103001           
         C36       1.0000    0.13460   0.40310   0.90120   Biso      1.000     C          -0.146087           
         C37       1.0000    0.18830   0.86220   0.57460   Biso      1.000     C          0.649884  
         C38       1.0000    0.02780   0.45050   0.95360   Biso      1.000     C          0.07357899999999999           
         C39       1.0000    0.34850   0.73830   0.64060   Biso      1.000     C          -0.097747           
         C40       1.0000    0.21890   0.57450   0.60580   Biso      1.000     C          0.072698  
         C41       1.0000    0.35350   0.64760   0.64740   Biso      1.000     C          -0.149561           
         C42       1.0000    0.19970   0.76140   0.58760   Biso      1.000     C          -0.039186           
         H1        1.0000    0.44090   0.78530   0.67000   Biso      1.000     H          0.11511800000000001           
         H2        1.0000    0.45160   0.63270   0.68160   Biso      1.000     H          0.110372  
         H3        1.0000    0.97670   0.55440   0.53300   Biso      1.000     H          0.113703  
         H4        1.0000    0.96320   0.71000   0.51920   Biso      1.000     H          0.111508  
         H5        1.0000    0.40820   0.52070   0.75240   Biso      1.000     H          0.114724  
         H6        1.0000    0.45950   0.35830   0.74540   Biso      1.000     H          0.12247100000000001           
         H7        1.0000    0.08110   0.23350   0.48180   Biso      1.000     H          0.09843099999999999           
         H8        1.0000    0.04380   0.39180   0.48020   Biso      1.000     H          0.111016  
         H9        1.0000    0.38240   0.71700   0.21580   Biso      1.000     H          0.111795  
         H10       1.0000    0.31280   0.56450   0.07400   Biso      1.000     H          0.10835499999999999           
         H11       1.0000    0.92990   0.72550   0.20640   Biso      1.000     H          0.115451  
         H12       1.0000    0.77090   0.21470   0.33000   Biso      1.000     H          0.114797  
         H13       1.0000    0.44370   0.44560   0.46700   Biso      1.000     H          0.114542  
         H14       1.0000    0.44400   0.29000   0.48080   Biso      1.000     H          0.11164400000000001           
         H15       1.0000    0.65580   0.47930   0.24760   Biso      1.000     H          0.113187  
         H16       1.0000    0.71410   0.64170   0.25460   Biso      1.000     H          0.123366  
         H17       1.0000    0.59930   0.76650   0.51820   Biso      1.000     H          0.09792999999999999           
         H18       1.0000    0.56360   0.60820   0.51980   Biso      1.000     H          0.10888699999999998           
         H19       1.0000    0.16660   0.28300   0.78420   Biso      1.000     H          0.11191300000000001           
         H20       1.0000    0.23880   0.43550   0.92600   Biso      1.000     H          0.10944000000000001           
         H21       1.0000    0.78680   0.43530   0.93020   Biso      1.000     H          0.11308900000000001           
         H22       1.0000    0.72350   0.27450   0.79360   Biso      1.000     H          0.114122  
         H23       1.0000    0.85660   0.56470   0.06980   Biso      1.000     H          0.113597  
         H24       1.0000    0.77000   0.36730   0.31840   Biso      1.000     H          0.111973  
         La1       1.0000    0.50159   0.00353   0.54858   Biso      1.000     La          1.951425  
         La2       1.0000    0.95301   0.99647   0.45142   Biso      1.000     La          1.9518779999999998  
         O1        1.0000    0.32140   0.91010   0.58920   Biso      1.000     O          -0.696435           
         O2        1.0000    0.05440   0.89000   0.55000   Biso      1.000     O          -0.591535           
         O3        1.0000    0.22880   0.09580   0.52380   Biso      1.000     O          -0.694607           
         O4        1.0000    0.42820   0.16770   0.67520   Biso      1.000     O          -0.5912569999999999           
         O5        1.0000    0.36110   0.87150   0.36960   Biso      1.000     O          -0.646399           
         O6        1.0000    0.10840   0.88070   0.35720   Biso      1.000     O          -0.644568           
         O7        1.0000    0.73220   0.08990   0.41080   Biso      1.000     O          -0.695705           
         O8        1.0000    0.50440   0.11000   0.45000   Biso      1.000     O          -0.589575           
         O9        1.0000    0.70500   0.90420   0.47620   Biso      1.000     O          -0.694472           
         O10       1.0000    0.75300   0.83230   0.32480   Biso      1.000     O          -0.593012           
         O11       1.0000    0.99150   0.12850   0.63040   Biso      1.000     O          -0.645857           
         O12       1.0000    0.75120   0.11930   0.64280   Biso      1.000     O          -0.6421899999999999 