
##########################################################################
#               Crystallographic Information Format file
#               Produced by PyCifRW module
#
#  This is a CIF file.  CIF has been adopted by the International
#  Union of Crystallography as the standard for data archiving and
#  transmission.
#
#  For information on this file format, follow the CIF links at
#  http://www.iucr.org
##########################################################################

data_image0

_cell_length_a                          8.789
_cell_length_b                          14.257
_cell_length_c                          15.1092
_cell_angle_alpha                       114.932
_cell_angle_beta                        106.909
_cell_angle_gamma                       90
_symmetry_space_group_name_H-M          'P 1'
_symmetry_int_tables_number             1
loop_
  _symmetry_equiv_pos_as_xyz
         'x, y, z' 
loop_
  _atom_site_label
  _atom_site_occupancy
  _atom_site_fract_x
  _atom_site_fract_y
  _atom_site_fract_z
  _atom_site_thermal_displace_type
  _atom_site_B_iso_or_equiv
  _atom_site_type_symbol
  _atom_site_charge
         C1        1.0000    0.31310   0.17720   0.60180   Biso      1.000     C          0.62054   
         C2        1.0000    0.97080   0.60110   0.08960   Biso      1.000     C          -0.153751           
         C3        1.0000    0.07780   0.54770   0.04840   Biso      1.000     C          0.078712  
         C4        1.0000    0.24540   0.59620   0.09880   Biso      1.000     C          -0.155314           
         C5        1.0000    0.19550   0.86720   0.57380   Biso      1.000     C          0.682104  
         C6        1.0000    0.20310   0.76810   0.58680   Biso      1.000     C          -0.033259           
         C7        1.0000    0.35080   0.75020   0.63880   Biso      1.000     C          -0.106347           
         C8        1.0000    0.35610   0.65400   0.64700   Biso      1.000     C          -0.16145  
         C9        1.0000    0.22070   0.58170   0.60580   Biso      1.000     C          0.076561  
         C10       1.0000    0.07560   0.60380   0.55900   Biso      1.000     C          -0.148494           
         C11       1.0000    0.07050   0.69820   0.55100   Biso      1.000     C          -0.089167           
         C12       1.0000    0.23270   0.47750   0.60980   Biso      1.000     C          0.08272   
         C13       1.0000    0.35450   0.47090   0.68960   Biso      1.000     C          -0.1584   
         C14       1.0000    0.37530   0.36990   0.68740   Biso      1.000     C          -0.094979           
         C15       1.0000    0.27600   0.28450   0.61020   Biso      1.000     C          -0.023882           
         C16       1.0000    0.14910   0.29370   0.53600   Biso      1.000     C          -0.097112           
         C17       1.0000    0.13260   0.39060   0.53500   Biso      1.000     C          -0.141456           
         C18       1.0000    0.28440   0.68580   0.18860   Biso      1.000     C          -0.091602           
         C19       1.0000    0.01450   0.69050   0.18260   Biso      1.000     C          -0.095366           
         C20       1.0000    0.62170   0.13280   0.42620   Biso      1.000     C          0.682956  
         C21       1.0000    0.61630   0.23190   0.41320   Biso      1.000     C          -0.037277           
         C22       1.0000    0.71200   0.24980   0.36120   Biso      1.000     C          -0.107427           
         C23       1.0000    0.83190   0.30950   0.81740   Biso      1.000     C          -0.09481  
         C24       1.0000    0.88120   0.39890   0.91040   Biso      1.000     C          -0.154052           
         C25       1.0000    0.02940   0.45230   0.95160   Biso      1.000     C          0.07672   
         C26       1.0000    0.14660   0.40380   0.90120   Biso      1.000     C          -0.155258           
         C27       1.0000    0.09580   0.31420   0.81140   Biso      1.000     C          -0.091801           
         C28       1.0000    0.94130   0.26570   0.76700   Biso      1.000     C          -0.036567           
         C29       1.0000    0.89070   0.16660   0.67080   Biso      1.000     C          0.678082  
         C30       1.0000    0.71130   0.82280   0.39820   Biso      1.000     C          0.62194   
         C31       1.0000    0.21990   0.83340   0.32920   Biso      1.000     C          0.678469  
         C32       1.0000    0.59760   0.60940   0.46500   Biso      1.000     C          -0.142204           
         C33       1.0000    0.66580   0.71550   0.38980   Biso      1.000     C          -0.020662           
         C34       1.0000    0.68790   0.63010   0.31260   Biso      1.000     C          -0.094797           
         C35       1.0000    0.66490   0.52910   0.31040   Biso      1.000     C          -0.158151           
         C36       1.0000    0.62290   0.52250   0.39020   Biso      1.000     C          0.083172  
         C37       1.0000    0.51950   0.30180   0.44900   Biso      1.000     C          -0.087818           
         C38       1.0000    0.51660   0.39620   0.44100   Biso      1.000     C          -0.150011           
         C39       1.0000    0.61490   0.41830   0.39420   Biso      1.000     C          0.075075  
         C40       1.0000    0.70910   0.34600   0.35300   Biso      1.000     C          -0.15724  
         C41       1.0000    0.61310   0.70630   0.46400   Biso      1.000     C          -0.098575           
         C42       1.0000    0.17430   0.73430   0.23300   Biso      1.000     C          -0.037748           
         Ce1       1.0000    0.50515   0.00501   0.54654   Biso      1.000     Ce          2.11789   
         Ce2       1.0000    0.95861   0.99499   0.45346   Biso      1.000     Ce          2.117881  
         H1        1.0000    0.72490   0.27890   0.78860   Biso      1.000     H          0.116299  
         H2        1.0000    0.44240   0.79910   0.66720   Biso      1.000     H          0.115393  
         H3        1.0000    0.45320   0.63980   0.68100   Biso      1.000     H          0.112616  
         H4        1.0000    0.98240   0.55690   0.53320   Biso      1.000     H          0.114725  
         H5        1.0000    0.97210   0.71330   0.51980   Biso      1.000     H          0.106934  
         H6        1.0000    0.42090   0.53070   0.74320   Biso      1.000     H          0.118655  
         H7        1.0000    0.07500   0.23540   0.48700   Biso      1.000     H          0.094504  
         H8        1.0000    0.05170   0.39550   0.48220   Biso      1.000     H          0.111055  
         H9        1.0000    0.39180   0.71530   0.22120   Biso      1.000     H          0.110207  
         H10       1.0000    0.32390   0.56660   0.07000   Biso      1.000     H          0.114896  
         H11       1.0000    0.86200   0.57720   0.05400   Biso      1.000     H          0.110289  
         H12       1.0000    0.45690   0.36360   0.73920   Biso      1.000     H          0.121213  
         H13       1.0000    0.77520   0.20090   0.33280   Biso      1.000     H          0.117155  
         H14       1.0000    0.93630   0.72110   0.21140   Biso      1.000     H          0.117796  
         H15       1.0000    0.25390   0.43340   0.93000   Biso      1.000     H          0.115389  
         H16       1.0000    0.17060   0.28470   0.77880   Biso      1.000     H          0.111079  
         H17       1.0000    0.56950   0.60450   0.51780   Biso      1.000     H          0.111946  
         H18       1.0000    0.58800   0.76460   0.51300   Biso      1.000     H          0.093822  
         H19       1.0000    0.80800   0.42280   0.94600   Biso      1.000     H          0.111147  
         H20       1.0000    0.67770   0.46930   0.25680   Biso      1.000     H          0.118577  
         H21       1.0000    0.45230   0.28670   0.48020   Biso      1.000     H          0.107551  
         H22       1.0000    0.44920   0.44310   0.46680   Biso      1.000     H          0.114876  
         H23       1.0000    0.77220   0.36020   0.31900   Biso      1.000     H          0.111253  
         H24       1.0000    0.71770   0.63640   0.26080   Biso      1.000     H          0.120665  
         O1        1.0000    0.99130   0.13100   0.62640   Biso      1.000     O          -0.657988           
         O2        1.0000    0.76250   0.82830   0.33180   Biso      1.000     O          -0.615192           
         O3        1.0000    0.70900   0.90240   0.47660   Biso      1.000     O          -0.748845           
         O4        1.0000    0.50930   0.10350   0.44820   Biso      1.000     O          -0.641284           
         O5        1.0000    0.73790   0.08540   0.41440   Biso      1.000     O          -0.724339           
         O6        1.0000    0.43070   0.17170   0.66820   Biso      1.000     O          -0.613628           
         O7        1.0000    0.36490   0.86900   0.37360   Biso      1.000     O          -0.657212           
         O8        1.0000    0.23240   0.09760   0.52340   Biso      1.000     O          -0.74804  
         O9        1.0000    0.06110   0.89650   0.55180   Biso      1.000     O          -0.641707           
         O10       1.0000    0.32350   0.91460   0.58560   Biso      1.000     O          -0.72373  
         O11       1.0000    0.11220   0.87720   0.36100   Biso      1.000     O          -0.711923           
         O12       1.0000    0.75120   0.12280   0.63900   Biso      1.000     O          -0.711996 