
##########################################################################
#               Crystallographic Information Format file
#               Produced by PyCifRW module
#
#  This is a CIF file.  CIF has been adopted by the International
#  Union of Crystallography as the standard for data archiving and
#  transmission.
#
#  For information on this file format, follow the CIF links at
#  http://www.iucr.org
##########################################################################

data_image0

_cell_length_a                          10.801
_cell_length_b                          10.906
_cell_length_c                          15.55
_cell_angle_alpha                       90
_cell_angle_beta                        90
_cell_angle_gamma                       100.401
_symmetry_space_group_name_H-M          'P 1'
_symmetry_int_tables_number             1
loop_
  _symmetry_equiv_pos_as_xyz
         'x, y, z' 
loop_
  _atom_site_label
  _atom_site_occupancy
  _atom_site_fract_x
  _atom_site_fract_y
  _atom_site_fract_z
  _atom_site_thermal_displace_type
  _atom_site_B_iso_or_equiv
  _atom_site_type_symbol
  _atom_site_charge
         C1        1.0000    0.86480   0.81220   0.77910   Biso      1.000     C          -0.015569999999999999         
         C2        1.0000    0.36480   0.31220   0.72090   Biso      1.000     C          -0.015569999999999999         
         C3        1.0000    0.48180   0.28170   0.70210   Biso      1.000     C          -0.10391900000000001          
         C4        1.0000    0.39040   0.14500   0.58960   Biso      1.000     C          -0.089676           
         C5        1.0000    0.35620   0.40290   0.79210   Biso      1.000     C          0.581313  
         C6        1.0000    0.62210   0.16460   0.62220   Biso      1.000     C          0.6099399999999999  
         C7        1.0000    0.65920   0.61350   0.94370   Biso      1.000     C          0.725787  
         C8        1.0000    0.77170   0.67470   0.89130   Biso      1.000     C          -0.043554           
         C9        1.0000    0.75980   0.75760   0.82660   Biso      1.000     C          -0.109524           
         C10       1.0000    0.98180   0.78170   0.79790   Biso      1.000     C          -0.10391900000000001          
         C11       1.0000    0.99590   0.69780   0.86210   Biso      1.000     C          -0.009845999999999999         
         C12       1.0000    0.25980   0.25760   0.67340   Biso      1.000     C          -0.109527           
         C13       1.0000    0.89040   0.64500   0.91040   Biso      1.000     C          -0.089676           
         C14       1.0000    0.12210   0.66460   0.87780   Biso      1.000     C          0.6099399999999999  
         C15       1.0000    0.84080   0.88650   0.44370   Biso      1.000     C          0.725787  
         C16       1.0000    0.72830   0.82530   0.39130   Biso      1.000     C          -0.043554           
         C17       1.0000    0.74020   0.74240   0.32660   Biso      1.000     C          -0.109524           
         C18       1.0000    0.63520   0.68780   0.27910   Biso      1.000     C          -0.015569999999999999         
         C19       1.0000    0.51820   0.71830   0.29790   Biso      1.000     C          -0.10391900000000001          
         C20       1.0000    0.50410   0.80220   0.36210   Biso      1.000     C          -0.009845999999999999         
         C21       1.0000    0.60960   0.85500   0.41040   Biso      1.000     C          -0.089676           
         C22       1.0000    0.64380   0.59710   0.20790   Biso      1.000     C          0.581313  
         C23       1.0000    0.37790   0.83540   0.37780   Biso      1.000     C          0.6099399999999999  
         C24       1.0000    0.85620   0.90290   0.70790   Biso      1.000     C          0.581313  
         C25       1.0000    0.27170   0.17470   0.60870   Biso      1.000     C          -0.043551           
         C26       1.0000    0.49590   0.19780   0.63790   Biso      1.000     C          -0.009845999999999999         
         C27       1.0000    0.87790   0.33540   0.12220   Biso      1.000     C          0.6099399999999999  
         C28       1.0000    0.14380   0.09710   0.29210   Biso      1.000     C          0.581313  
         C29       1.0000    0.10960   0.35500   0.08960   Biso      1.000     C          -0.089676           
         C30       1.0000    0.00410   0.30220   0.13790   Biso      1.000     C          -0.009849           
         C31       1.0000    0.01820   0.21830   0.20210   Biso      1.000     C          -0.10391600000000001          
         C32       1.0000    0.13520   0.18780   0.22090   Biso      1.000     C          -0.015569999999999999         
         C33       1.0000    0.24020   0.24240   0.17340   Biso      1.000     C          -0.109527           
         C34       1.0000    0.22830   0.32530   0.10870   Biso      1.000     C          -0.043551           
         C35       1.0000    0.34080   0.38650   0.05630   Biso      1.000     C          0.725787  
         C36       1.0000    0.15920   0.11350   0.55630   Biso      1.000     C          0.725787  
         H1        1.0000    0.31860   0.22260   0.18560   Biso      1.000     H          0.121098  
         H2        1.0000    0.94810   0.18130   0.23350   Biso      1.000     H          0.136252  
         H3        1.0000    0.10150   0.40960   0.04500   Biso      1.000     H          0.141924  
         H4        1.0000    0.18140   0.27740   0.68560   Biso      1.000     H          0.121098  
         H5        1.0000    0.55190   0.31870   0.73350   Biso      1.000     H          0.136252  
         H6        1.0000    0.68140   0.77740   0.81440   Biso      1.000     H          0.121098  
         H7        1.0000    0.39850   0.09040   0.54500   Biso      1.000     H          0.141924  
         H8        1.0000    0.89850   0.59040   0.95500   Biso      1.000     H          0.141924  
         H9        1.0000    0.81860   0.72260   0.31440   Biso      1.000     H          0.121098  
         H10       1.0000    0.44810   0.68130   0.26650   Biso      1.000     H          0.136252  
         H11       1.0000    0.60150   0.90960   0.45500   Biso      1.000     H          0.141924  
         H12       1.0000    0.05190   0.81870   0.76650   Biso      1.000     H          0.13625299999999999           
         O1        1.0000    0.71250   0.21160   0.66960   Biso      1.000     O          -0.6955640000000001           
         O2        1.0000    0.67020   0.52380   0.98950   Biso      1.000     O          -0.6682239999999999           
         O3        1.0000    0.56190   0.66350   0.93730   Biso      1.000     O          -0.738482           
         O4        1.0000    0.75630   0.94540   0.69800   Biso      1.000     O          -0.6295069999999999           
         O5        1.0000    0.95060   0.94000   0.66160   Biso      1.000     O          -0.636196           
         O6        1.0000    0.54940   0.56000   0.16160   Biso      1.000     O          -0.636196           
         O7        1.0000    0.21250   0.71160   0.83040   Biso      1.000     O          -0.6955640000000001           
         O8        1.0000    0.74370   0.55460   0.19800   Biso      1.000     O          -0.629506           
         O9        1.0000    0.93810   0.83650   0.43730   Biso      1.000     O          -0.738482           
         O10       1.0000    0.63590   0.09000   0.56370   Biso      1.000     O          -0.6220100000000001           
         O11       1.0000    0.82980   0.97620   0.48950   Biso      1.000     O          -0.6682239999999999           
         O12       1.0000    0.13590   0.59000   0.93630   Biso      1.000     O          -0.6220100000000001           
         O13       1.0000    0.45060   0.44000   0.83840   Biso      1.000     O          -0.636196           
         O14       1.0000    0.28750   0.78840   0.33040   Biso      1.000     O          -0.6955640000000001           
         O15       1.0000    0.06190   0.16350   0.56270   Biso      1.000     O          -0.738482           
         O16       1.0000    0.17020   0.02380   0.51050   Biso      1.000     O          -0.6682239999999999           
         O17       1.0000    0.78750   0.28840   0.16960   Biso      1.000     O          -0.695565           
         O18       1.0000    0.86410   0.41000   0.06370   Biso      1.000     O          -0.6220100000000001           
         O19       1.0000    0.04940   0.06000   0.33840   Biso      1.000     O          -0.636196           
         O20       1.0000    0.24370   0.05460   0.30200   Biso      1.000     O          -0.629506           
         O21       1.0000    0.43810   0.33650   0.06270   Biso      1.000     O          -0.738482           
         O22       1.0000    0.32980   0.47620   0.01050   Biso      1.000     O          -0.6682239999999999           
         O23       1.0000    0.36410   0.91000   0.43630   Biso      1.000     O          -0.6220100000000001           
         O24       1.0000    0.25630   0.44540   0.80200   Biso      1.000     O          -0.6295069999999999           
         Tm1       1.0000    0.85641   0.10211   0.60208   Biso      1.000     Tm          2.045757  
         Tm2       1.0000    0.64359   0.39789   0.10208   Biso      1.000     Tm          2.045758  
         Tm3       1.0000    0.14359   0.89789   0.39792   Biso      1.000     Tm          2.045758  
         Tm4       1.0000    0.35641   0.60211   0.89792   Biso      1.000     Tm          2.045759 