
##########################################################################
#               Crystallographic Information Format file
#               Produced by PyCifRW module
#
#  This is a CIF file.  CIF has been adopted by the International
#  Union of Crystallography as the standard for data archiving and
#  transmission.
#
#  For information on this file format, follow the CIF links at
#  http://www.iucr.org
##########################################################################

data_image0

_cell_length_a                          5.6437
_cell_length_b                          9.1507
_cell_length_c                          12.8357
_cell_angle_alpha                       90
_cell_angle_beta                        90
_cell_angle_gamma                       95.892
_symmetry_space_group_name_H-M          'P 1'
_symmetry_int_tables_number             1
loop_
  _symmetry_equiv_pos_as_xyz
         'x, y, z' 
loop_
  _atom_site_label
  _atom_site_occupancy
  _atom_site_fract_x
  _atom_site_fract_y
  _atom_site_fract_z
  _atom_site_thermal_displace_type
  _atom_site_B_iso_or_equiv
  _atom_site_type_symbol
  _atom_site_charge
         C1        1.0000    0.36670   0.25860   0.28857   Biso      1.000     C          0.202319  
         C2        1.0000    0.60510   0.26740   0.33752   Biso      1.000     C          0.19881   
         C3        1.0000    0.69390   0.37480   0.25708   Biso      1.000     C          0.181631  
         C4        1.0000    0.46000   0.36050   0.20841   Biso      1.000     C          0.176844  
         C5        1.0000    0.39490   0.23260   0.83752   Biso      1.000     C          0.19869900000000001           
         C6        1.0000    0.30610   0.12520   0.75708   Biso      1.000     C          0.183316  
         C7        1.0000    0.54000   0.13950   0.70841   Biso      1.000     C          0.17824600000000002           
         C8        1.0000    0.63330   0.24140   0.78857   Biso      1.000     C          0.203317  
         C9        1.0000    0.39490   0.73260   0.66248   Biso      1.000     C          0.19881400000000002           
         C10       1.0000    0.30610   0.62520   0.74292   Biso      1.000     C          0.181662  
         C11       1.0000    0.36670   0.75860   0.21143   Biso      1.000     C          0.20328   
         C12       1.0000    0.46000   0.86050   0.29159   Biso      1.000     C          0.178233  
         C13       1.0000    0.69390   0.87480   0.24292   Biso      1.000     C          0.183292  
         C14       1.0000    0.60510   0.76740   0.16248   Biso      1.000     C          0.198702  
         C15       1.0000    0.63330   0.74140   0.71143   Biso      1.000     C          0.202355  
         C16       1.0000    0.54000   0.63950   0.79159   Biso      1.000     C          0.176861  
         Cu1       1.0000    0.01236   0.53936   0.11172   Biso      1.000     Cu          1.0345950000000002  
         Cu2       1.0000    0.98764   0.96064   0.61172   Biso      1.000     Cu          1.036756  
         Cu3       1.0000    0.98764   0.46064   0.88828   Biso      1.000     Cu          1.034653  
         Cu4       1.0000    0.50000   0.50000   0.00000   Biso      1.000     Cu          0.981824  
         Cu5       1.0000    0.50000   0.00000   0.50000   Biso      1.000     Cu          0.974318  
         Cu6       1.0000    0.01236   0.03936   0.38828   Biso      1.000     Cu          1.036783  
         H1        1.0000    0.77700   0.33900   0.03300   Biso      1.000     H          0.505416  
         H2        1.0000    0.22300   0.16100   0.53300   Biso      1.000     H          0.504492  
         H3        1.0000    0.77700   0.83900   0.46700   Biso      1.000     H          0.5044930000000001  
         H4        1.0000    0.22300   0.66100   0.96700   Biso      1.000     H          0.505418  
         O1        1.0000    0.83650   0.30540   0.80208   Biso      1.000     O          -0.408577           
         O2        1.0000    0.36200   0.40940   0.12803   Biso      1.000     O          -0.48463100000000003          
         O3        1.0000    0.16350   0.19460   0.30208   Biso      1.000     O          -0.41180100000000003          
         O4        1.0000    0.19410   0.08418   0.51710   Biso      1.000     O          -1.0127959999999998           
         O5        1.0000    0.30480   0.29310   0.91291   Biso      1.000     O          -0.473855           
         O6        1.0000    0.10840   0.05210   0.74088   Biso      1.000     O          -0.413959           
         O7        1.0000    0.63800   0.09060   0.62803   Biso      1.000     O          -0.476058           
         O8        1.0000    0.89160   0.44790   0.24088   Biso      1.000     O          -0.41647  
         O9        1.0000    0.19410   0.58418   0.98290   Biso      1.000     O          -1.0067110000000001           
         O10       1.0000    0.83650   0.80540   0.69792   Biso      1.000     O          -0.411742           
         O11       1.0000    0.10840   0.55210   0.75912   Biso      1.000     O          -0.416411           
         O12       1.0000    0.63800   0.59060   0.87197   Biso      1.000     O          -0.48462200000000005          
         O13       1.0000    0.80590   0.91582   0.48290   Biso      1.000     O          -1.012802           
         O14       1.0000    0.69520   0.70690   0.08709   Biso      1.000     O          -0.47391400000000006          
         O15       1.0000    0.89160   0.94790   0.25912   Biso      1.000     O          -0.41400699999999996          
         O16       1.0000    0.36200   0.90940   0.37197   Biso      1.000     O          -0.476067           
         O17       1.0000    0.16350   0.69460   0.19792   Biso      1.000     O          -0.408616           
         O18       1.0000    0.69520   0.20690   0.41291   Biso      1.000     O          -0.47776599999999997          
         O19       1.0000    0.30480   0.79310   0.58709   Biso      1.000     O          -0.47762899999999997          
         O20       1.0000    0.80590   0.41582   0.01710   Biso      1.000     O          -1.0066950000000001 