
##########################################################################
#               Crystallographic Information Format file
#               Produced by PyCifRW module
#
#  This is a CIF file.  CIF has been adopted by the International
#  Union of Crystallography as the standard for data archiving and
#  transmission.
#
#  For information on this file format, follow the CIF links at
#  http://www.iucr.org
##########################################################################

data_image0

_cell_length_a                          9.3348
_cell_length_b                          9.3606
_cell_length_c                          13.0009
_cell_angle_alpha                       90
_cell_angle_beta                        90
_cell_angle_gamma                       91.282
_symmetry_space_group_name_H-M          'P 1'
_symmetry_int_tables_number             1
loop_
  _symmetry_equiv_pos_as_xyz
         'x, y, z' 
loop_
  _atom_site_label
  _atom_site_occupancy
  _atom_site_fract_x
  _atom_site_fract_y
  _atom_site_fract_z
  _atom_site_thermal_displace_type
  _atom_site_B_iso_or_equiv
  _atom_site_type_symbol
  _atom_site_charge
         C1        1.0000    0.99700   0.20530   0.25580   Biso      1.000     C          0.552098  
         C2        1.0000    0.48530   0.25170   0.22320   Biso      1.000     C          0.550111  
         C3        1.0000    0.98530   0.75170   0.27680   Biso      1.000     C          0.550099  
         C4        1.0000    0.01470   0.24830   0.72320   Biso      1.000     C          0.5500970000000001  
         C5        1.0000    0.50300   0.29470   0.75580   Biso      1.000     C          0.552108  
         C6        1.0000    0.49700   0.70530   0.24420   Biso      1.000     C          0.55211   
         C7        1.0000    0.00300   0.79470   0.74420   Biso      1.000     C          0.552096  
         C8        1.0000    0.51470   0.74830   0.77680   Biso      1.000     C          0.5501050000000001  
         Cl1       1.0000    0.73402   0.49264   0.95163   Biso      1.000     Cl          -0.44708400000000004          
         Cl2       1.0000    0.26598   0.50736   0.04837   Biso      1.000     Cl          -0.44706899999999994          
         Cl3       1.0000    0.76598   0.00736   0.45163   Biso      1.000     Cl          -0.44704499999999997          
         Cl4       1.0000    0.23402   0.99264   0.54837   Biso      1.000     Cl          -0.44706  
         H1        1.0000    0.01420   0.08080   0.37300   Biso      1.000     H          0.340926  
         H2        1.0000    0.48580   0.41920   0.87300   Biso      1.000     H          0.340932  
         H3        1.0000    0.98580   0.91920   0.62700   Biso      1.000     H          0.340927  
         H4        1.0000    0.63280   0.68950   0.13340   Biso      1.000     H          0.34020500000000004           
         H5        1.0000    0.40360   0.75870   0.90220   Biso      1.000     H          0.349796  
         H6        1.0000    0.36720   0.31050   0.86660   Biso      1.000     H          0.34021   
         H7        1.0000    0.51420   0.58080   0.12700   Biso      1.000     H          0.34093   
         H8        1.0000    0.90360   0.25870   0.59780   Biso      1.000     H          0.349786  
         H9        1.0000    0.86720   0.81050   0.63340   Biso      1.000     H          0.340206  
         H10       1.0000    0.59640   0.24130   0.09780   Biso      1.000     H          0.34978899999999996           
         H11       1.0000    0.01940   0.15210   0.59150   Biso      1.000     H          0.340699  
         H12       1.0000    0.48060   0.34790   0.09150   Biso      1.000     H          0.34070300000000003           
         H13       1.0000    0.13280   0.18950   0.36660   Biso      1.000     H          0.340206  
         H14       1.0000    0.51940   0.65210   0.90850   Biso      1.000     H          0.34070300000000003           
         H15       1.0000    0.98060   0.84790   0.40850   Biso      1.000     H          0.340698  
         H16       1.0000    0.09640   0.74130   0.40220   Biso      1.000     H          0.349787  
         Mn1       1.0000    0.78361   0.51438   0.75730   Biso      1.000     Mn          0.764541  
         Mn2       1.0000    0.28361   0.01438   0.74270   Biso      1.000     Mn          0.76462   
         Mn3       1.0000    0.21639   0.48562   0.24270   Biso      1.000     Mn          0.764591  
         Mn4       1.0000    0.00000   0.50000   0.00000   Biso      1.000     Mn          0.621369  
         Mn5       1.0000    0.71639   0.98562   0.25730   Biso      1.000     Mn          0.7646029999999999  
         Mn6       1.0000    0.50000   0.00000   0.50000   Biso      1.000     Mn          0.621416  
         N1        1.0000    0.44870   0.18450   0.70207   Biso      1.000     N          -0.356488           
         N2        1.0000    0.12220   0.84710   0.78918   Biso      1.000     N          -0.348323           
         N3        1.0000    0.62970   0.75100   0.63433   Biso      1.000     N          -0.077    
         N4        1.0000    0.14130   0.76610   0.87436   Biso      1.000     N          -0.06451699999999999          
         N5        1.0000    0.02570   0.78430   0.37440   Biso      1.000     N          -0.753279           
         N6        1.0000    0.35870   0.73390   0.37436   Biso      1.000     N          -0.06450399999999999          
         N7        1.0000    0.55500   0.65210   0.15770   Biso      1.000     N          -0.74593  
         N8        1.0000    0.53850   0.17090   0.62065   Biso      1.000     N          -0.031325           
         N9        1.0000    0.95230   0.34510   0.78280   Biso      1.000     N          -0.348867           
         N10       1.0000    0.12430   0.18720   0.77248   Biso      1.000     N          -0.34485  
         N11       1.0000    0.37570   0.31280   0.27248   Biso      1.000     N          -0.344842           
         N12       1.0000    0.37030   0.24900   0.36567   Biso      1.000     N          -0.076968           
         N13       1.0000    0.45230   0.84510   0.71720   Biso      1.000     N          -0.348876           
         N14       1.0000    0.97170   0.65690   0.12831   Biso      1.000     N          -0.031601           
         N15       1.0000    0.52570   0.28430   0.12560   Biso      1.000     N          -0.753274           
         N16       1.0000    0.85870   0.23390   0.12564   Biso      1.000     N          -0.064519           
         N17       1.0000    0.62430   0.68720   0.72752   Biso      1.000     N          -0.34481100000000003          
         N18       1.0000    0.05500   0.15210   0.34230   Biso      1.000     N          -0.745934           
         N19       1.0000    0.47430   0.71570   0.87440   Biso      1.000     N          -0.7532840000000001           
         N20       1.0000    0.55130   0.81550   0.29793   Biso      1.000     N          -0.356487           
         N21       1.0000    0.44500   0.34790   0.84230   Biso      1.000     N          -0.745938           
         N22       1.0000    0.62220   0.34710   0.71082   Biso      1.000     N          -0.34830900000000004          
         N23       1.0000    0.12970   0.25100   0.86567   Biso      1.000     N          -0.07699299999999999          
         N24       1.0000    0.47170   0.15690   0.37169   Biso      1.000     N          -0.031576           
         N25       1.0000    0.54770   0.15490   0.28280   Biso      1.000     N          -0.34885900000000003          
         N26       1.0000    0.96150   0.32910   0.12065   Biso      1.000     N          -0.031275           
         N27       1.0000    0.37780   0.65290   0.28918   Biso      1.000     N          -0.348302           
         N28       1.0000    0.05130   0.31550   0.20207   Biso      1.000     N          -0.356476           
         N29       1.0000    0.46150   0.82910   0.37935   Biso      1.000     N          -0.031272           
         N30       1.0000    0.94870   0.68450   0.79793   Biso      1.000     N          -0.356483           
         N31       1.0000    0.04770   0.65490   0.21720   Biso      1.000     N          -0.348862           
         N32       1.0000    0.87570   0.81280   0.22752   Biso      1.000     N          -0.34485  
         N33       1.0000    0.02830   0.34310   0.87169   Biso      1.000     N          -0.031560000000000005         
         N34       1.0000    0.87030   0.74900   0.13433   Biso      1.000     N          -0.076949           
         N35       1.0000    0.94500   0.84790   0.65770   Biso      1.000     N          -0.745938           
         N36       1.0000    0.52830   0.84310   0.62831   Biso      1.000     N          -0.031567000000000005         
         N37       1.0000    0.03850   0.67090   0.87935   Biso      1.000     N          -0.031269           
         N38       1.0000    0.64130   0.26610   0.62564   Biso      1.000     N          -0.064462           
         N39       1.0000    0.97430   0.21570   0.62560   Biso      1.000     N          -0.7532840000000001           
         N40       1.0000    0.87780   0.15290   0.21082   Biso      1.000     N          -0.348306 