
##########################################################################
#               Crystallographic Information Format file
#               Produced by PyCifRW module
#
#  This is a CIF file.  CIF has been adopted by the International
#  Union of Crystallography as the standard for data archiving and
#  transmission.
#
#  For information on this file format, follow the CIF links at
#  http://www.iucr.org
##########################################################################

data_image0

_cell_length_a                          21.403
_cell_length_b                          34.255
_cell_length_c                          8.023
_cell_angle_alpha                       90
_cell_angle_beta                        90
_cell_angle_gamma                       90
_symmetry_space_group_name_H-M          'P 1'
_symmetry_int_tables_number             1
loop_
  _symmetry_equiv_pos_as_xyz
         'x, y, z' 
loop_
  _atom_site_label
  _atom_site_occupancy
  _atom_site_fract_x
  _atom_site_fract_y
  _atom_site_fract_z
  _atom_site_thermal_displace_type
  _atom_site_B_iso_or_equiv
  _atom_site_type_symbol
  _atom_site_charge
         C1        1.0000    0.80750   0.91620   0.46200   Biso      1.000     C          -0.178151           
         C2        1.0000    0.25000   0.55560   0.99900   Biso      1.000     C          0.154284  
         C3        1.0000    0.25000   0.57650   0.85100   Biso      1.000     C          -0.149748           
         C4        1.0000    0.98800   0.68470   0.16300   Biso      1.000     C          -0.133161           
         C5        1.0000    0.25000   0.61710   0.85400   Biso      1.000     C          -0.094107           
         C6        1.0000    0.04200   0.70600   0.19100   Biso      1.000     C          -0.121712           
         C7        1.0000    0.06980   0.72670   0.06200   Biso      1.000     C          0.00752   
         C8        1.0000    0.04300   0.72620   0.90400   Biso      1.000     C          -0.081452           
         C9        1.0000    0.25000   0.51300   0.99243   Biso      1.000     C          -0.126482           
         C10       1.0000    0.98900   0.70490   0.87500   Biso      1.000     C          -0.136926           
         C11       1.0000    0.96120   0.68420   0.00500   Biso      1.000     C          0.156884  
         C12       1.0000    0.90940   0.66380   0.97800   Biso      1.000     C          -0.106994           
         C13       1.0000    0.86130   0.64510   0.95100   Biso      1.000     C          -0.095664           
         C14       1.0000    0.80910   0.62410   0.93300   Biso      1.000     C          0.150606  
         C15       1.0000    0.25000   0.47670   0.98700   Biso      1.000     C          -0.131964           
         C16       1.0000    0.80750   0.58380   0.96200   Biso      1.000     C          -0.178151           
         C17       1.0000    0.63000   0.23820   0.64400   Biso      1.000     C          0.544381  
         C18       1.0000    0.25000   0.43520   0.97500   Biso      1.000     C          0.162466  
         C19       1.0000    0.30750   0.08380   0.46200   Biso      1.000     C          -0.17815  
         C20       1.0000    0.75000   0.07530   0.65100   Biso      1.000     C          -0.146463           
         C21       1.0000    0.36130   0.14510   0.45100   Biso      1.000     C          -0.095763           
         C22       1.0000    0.40940   0.16380   0.47800   Biso      1.000     C          -0.106916           
         C23       1.0000    0.46120   0.18420   0.50500   Biso      1.000     C          0.156894  
         C24       1.0000    0.48900   0.20490   0.37500   Biso      1.000     C          -0.136929           
         C25       1.0000    0.13000   0.73820   0.14400   Biso      1.000     C          0.544381  
         C26       1.0000    0.25000   0.88410   0.65400   Biso      1.000     C          -0.11349  
         C27       1.0000    0.25000   0.86320   0.50500   Biso      1.000     C          -0.027385           
         C28       1.0000    0.56980   0.22670   0.56200   Biso      1.000     C          0.007521  
         C29       1.0000    0.54200   0.20600   0.69100   Biso      1.000     C          -0.121711           
         C30       1.0000    0.25000   0.82140   0.51900   Biso      1.000     C          0.657581  
         C31       1.0000    0.48800   0.18470   0.66300   Biso      1.000     C          -0.133161           
         C32       1.0000    0.25000   0.35800   0.93200   Biso      1.000     C          -0.177182           
         C33       1.0000    0.54300   0.22620   0.40400   Biso      1.000     C          -0.08145  
         C34       1.0000    0.69250   0.91620   0.46200   Biso      1.000     C          -0.178147           
         C35       1.0000    0.69090   0.87590   0.43300   Biso      1.000     C          0.150594  
         C36       1.0000    0.63870   0.85490   0.45100   Biso      1.000     C          -0.095736           
         C37       1.0000    0.01100   0.29510   0.87500   Biso      1.000     C          -0.136925           
         C38       1.0000    0.75000   0.93520   0.47500   Biso      1.000     C          0.162469  
         C39       1.0000    0.95700   0.27380   0.90400   Biso      1.000     C          -0.081455           
         C40       1.0000    0.75000   0.97670   0.48700   Biso      1.000     C          -0.131993           
         C41       1.0000    0.93020   0.27330   0.06200   Biso      1.000     C          0.007523  
         C42       1.0000    0.95800   0.29400   0.19100   Biso      1.000     C          -0.121712           
         C43       1.0000    0.03880   0.31580   0.00500   Biso      1.000     C          0.156882  
         C44       1.0000    0.75000   0.01300   0.49243   Biso      1.000     C          -0.126453           
         C45       1.0000    0.75000   0.11710   0.35400   Biso      1.000     C          -0.094107           
         C46       1.0000    0.87000   0.26180   0.14400   Biso      1.000     C          0.54438   
         C47       1.0000    0.75000   0.17860   0.51900   Biso      1.000     C          0.657581  
         C48       1.0000    0.75000   0.13680   0.50500   Biso      1.000     C          -0.027384           
         C49       1.0000    0.75000   0.11590   0.65400   Biso      1.000     C          -0.113488           
         C50       1.0000    0.75000   0.07650   0.35100   Biso      1.000     C          -0.149749           
         C51       1.0000    0.01200   0.31530   0.16300   Biso      1.000     C          -0.133157           
         C52       1.0000    0.37000   0.73820   0.14400   Biso      1.000     C          0.54438   
         C53       1.0000    0.09060   0.33620   0.97800   Biso      1.000     C          -0.107    
         C54       1.0000    0.19090   0.37590   0.93300   Biso      1.000     C          0.150582  
         C55       1.0000    0.59060   0.83620   0.47800   Biso      1.000     C          -0.106923           
         C56       1.0000    0.53880   0.81580   0.50500   Biso      1.000     C          0.156895  
         C57       1.0000    0.51100   0.79510   0.37500   Biso      1.000     C          -0.136929           
         C58       1.0000    0.25000   0.57530   0.15100   Biso      1.000     C          -0.146463           
         C59       1.0000    0.45700   0.77380   0.40400   Biso      1.000     C          -0.081453           
         C60       1.0000    0.43020   0.77330   0.56200   Biso      1.000     C          0.007523  
         C61       1.0000    0.13870   0.35490   0.95100   Biso      1.000     C          -0.095637           
         C62       1.0000    0.45800   0.79400   0.69100   Biso      1.000     C          -0.121711           
         C63       1.0000    0.51200   0.81530   0.66300   Biso      1.000     C          -0.133161           
         C64       1.0000    0.25000   0.63680   0.00500   Biso      1.000     C          -0.027384           
         C65       1.0000    0.25000   0.67860   0.01900   Biso      1.000     C          0.657581  
         C66       1.0000    0.37000   0.76180   0.64400   Biso      1.000     C          0.54438   
         C67       1.0000    0.19250   0.41620   0.96200   Biso      1.000     C          -0.178149           
         C68       1.0000    0.75000   0.85800   0.43200   Biso      1.000     C          -0.177181           
         C69       1.0000    0.25000   0.61590   0.15400   Biso      1.000     C          -0.113488           
         C70       1.0000    0.25000   0.92470   0.65100   Biso      1.000     C          -0.146461           
         C71       1.0000    0.30910   0.12410   0.43300   Biso      1.000     C          0.150618  
         C72       1.0000    0.25000   0.94440   0.49900   Biso      1.000     C          0.154284  
         C73       1.0000    0.19250   0.08380   0.46200   Biso      1.000     C          -0.178148           
         C74       1.0000    0.63000   0.26180   0.14400   Biso      1.000     C          0.544381  
         C75       1.0000    0.75000   0.42470   0.15100   Biso      1.000     C          -0.146463           
         C76       1.0000    0.48800   0.31530   0.16300   Biso      1.000     C          -0.133161           
         C77       1.0000    0.54200   0.29400   0.19100   Biso      1.000     C          -0.121712           
         C78       1.0000    0.56980   0.27330   0.06200   Biso      1.000     C          0.00752   
         C79       1.0000    0.75000   0.44440   0.99900   Biso      1.000     C          0.154284  
         C80       1.0000    0.54300   0.27380   0.90400   Biso      1.000     C          -0.081452           
         C81       1.0000    0.75000   0.42350   0.85100   Biso      1.000     C          -0.149748           
         C82       1.0000    0.48900   0.29510   0.87500   Biso      1.000     C          -0.136926           
         C83       1.0000    0.46120   0.31580   0.00500   Biso      1.000     C          0.156884  
         C84       1.0000    0.40940   0.33620   0.97800   Biso      1.000     C          -0.106994           
         C85       1.0000    0.36130   0.35490   0.95100   Biso      1.000     C          -0.095663           
         C86       1.0000    0.30910   0.37590   0.93300   Biso      1.000     C          0.150607  
         C87       1.0000    0.75000   0.36320   0.00500   Biso      1.000     C          -0.027385           
         C88       1.0000    0.30750   0.41620   0.96200   Biso      1.000     C          -0.178151           
         C89       1.0000    0.75000   0.38290   0.85400   Biso      1.000     C          -0.094106           
         C90       1.0000    0.75000   0.48700   0.99243   Biso      1.000     C          -0.126482           
         C91       1.0000    0.98800   0.81530   0.66300   Biso      1.000     C          -0.133161           
         C92       1.0000    0.75000   0.52330   0.98700   Biso      1.000     C          -0.131964           
         C93       1.0000    0.04200   0.79400   0.69100   Biso      1.000     C          -0.121712           
         C94       1.0000    0.06980   0.77330   0.56200   Biso      1.000     C          0.00752   
         C95       1.0000    0.75000   0.56480   0.97500   Biso      1.000     C          0.162465  
         C96       1.0000    0.04300   0.77380   0.40400   Biso      1.000     C          -0.081452           
         C97       1.0000    0.75000   0.64200   0.93200   Biso      1.000     C          -0.177181           
         C98       1.0000    0.98900   0.79510   0.37500   Biso      1.000     C          -0.136926           
         C99       1.0000    0.96120   0.81580   0.50500   Biso      1.000     C          0.156884  
         C100      1.0000    0.90940   0.83620   0.47800   Biso      1.000     C          -0.106994           
         C101      1.0000    0.86130   0.85490   0.45100   Biso      1.000     C          -0.095664           
         C102      1.0000    0.80910   0.87590   0.43300   Biso      1.000     C          0.150606  
         C103      1.0000    0.13000   0.76180   0.64400   Biso      1.000     C          0.544381  
         C104      1.0000    0.19090   0.12410   0.43300   Biso      1.000     C          0.150593  
         C105      1.0000    0.75000   0.38410   0.15400   Biso      1.000     C          -0.113488           
         C106      1.0000    0.13870   0.14510   0.45100   Biso      1.000     C          -0.095736           
         C107      1.0000    0.25000   0.98700   0.49243   Biso      1.000     C          -0.126482           
         C108      1.0000    0.87000   0.23820   0.64400   Biso      1.000     C          0.544381  
         C109      1.0000    0.69250   0.58380   0.96200   Biso      1.000     C          -0.178148           
         C110      1.0000    0.69090   0.62410   0.93300   Biso      1.000     C          0.150594  
         C111      1.0000    0.63870   0.64510   0.95100   Biso      1.000     C          -0.095736           
         C112      1.0000    0.59060   0.66380   0.97800   Biso      1.000     C          -0.106923           
         C113      1.0000    0.25000   0.02330   0.48700   Biso      1.000     C          -0.131965           
         C114      1.0000    0.53880   0.68420   0.00500   Biso      1.000     C          0.156895  
         C115      1.0000    0.25000   0.88290   0.35400   Biso      1.000     C          -0.094106           
         C116      1.0000    0.45700   0.72620   0.90400   Biso      1.000     C          -0.081453           
         C117      1.0000    0.43020   0.72670   0.06200   Biso      1.000     C          0.007523  
         C118      1.0000    0.45800   0.70600   0.19100   Biso      1.000     C          -0.121711           
         C119      1.0000    0.25000   0.92350   0.35100   Biso      1.000     C          -0.149748           
         C120      1.0000    0.51200   0.68470   0.16300   Biso      1.000     C          -0.133161           
         C121      1.0000    0.51100   0.70490   0.87500   Biso      1.000     C          -0.136929           
         C122      1.0000    0.25000   0.06480   0.47500   Biso      1.000     C          0.162464  
         C123      1.0000    0.75000   0.05560   0.49900   Biso      1.000     C          0.154281  
         C124      1.0000    0.25000   0.14200   0.43200   Biso      1.000     C          -0.17718  
         C125      1.0000    0.95800   0.20600   0.69100   Biso      1.000     C          -0.121711           
         C126      1.0000    0.93020   0.22670   0.56200   Biso      1.000     C          0.007521  
         C127      1.0000    0.09060   0.16380   0.47800   Biso      1.000     C          -0.106922           
         C128      1.0000    0.03880   0.18420   0.50500   Biso      1.000     C          0.156895  
         C129      1.0000    0.01100   0.20490   0.37500   Biso      1.000     C          -0.136929           
         C130      1.0000    0.95700   0.22620   0.40400   Biso      1.000     C          -0.08145  
         C131      1.0000    0.75000   0.32140   0.01900   Biso      1.000     C          0.657581  
         C132      1.0000    0.01200   0.18470   0.66300   Biso      1.000     C          -0.133161           
         H1        1.0000    0.75000   0.66970   0.93040   Biso      1.000     H          0.11261   
         H2        1.0000    0.25000   0.87070   0.75740   Biso      1.000     H          0.097911  
         H3        1.0000    0.75000   0.06310   0.24720   Biso      1.000     H          0.122569  
         H4        1.0000    0.25000   0.56100   0.25230   Biso      1.000     H          0.121687  
         H5        1.0000    0.75000   0.13140   0.25230   Biso      1.000     H          0.108965  
         H6        1.0000    0.25000   0.93690   0.24720   Biso      1.000     H          0.122569  
         H7        1.0000    0.25000   0.63140   0.75230   Biso      1.000     H          0.108965  
         H8        1.0000    0.75000   0.37070   0.25740   Biso      1.000     H          0.097911  
         H9        1.0000    0.75000   0.43900   0.25230   Biso      1.000     H          0.121687  
         H10       1.0000    0.25000   0.16970   0.43040   Biso      1.000     H          0.112611  
         H11       1.0000    0.75000   0.36860   0.75230   Biso      1.000     H          0.108965  
         H12       1.0000    0.25000   0.86860   0.25230   Biso      1.000     H          0.108965  
         H13       1.0000    0.25000   0.33030   0.93040   Biso      1.000     H          0.11261   
         H14       1.0000    0.25000   0.62930   0.25740   Biso      1.000     H          0.097911  
         H15       1.0000    0.25000   0.56310   0.74720   Biso      1.000     H          0.122569  
         H16       1.0000    0.75000   0.83030   0.43040   Biso      1.000     H          0.112611  
         H17       1.0000    0.25000   0.93900   0.75230   Biso      1.000     H          0.121687  
         H18       1.0000    0.75000   0.43690   0.74720   Biso      1.000     H          0.122569  
         H19       1.0000    0.65470   0.93050   0.47290   Biso      1.000     H          0.133456  
         H20       1.0000    0.75000   0.12930   0.75740   Biso      1.000     H          0.097911  
         H21       1.0000    0.56190   0.24030   0.31520   Biso      1.000     H          0.102244  
         H22       1.0000    0.47060   0.20450   0.26740   Biso      1.000     H          0.125579  
         H23       1.0000    0.75000   0.06100   0.75230   Biso      1.000     H          0.121687  
         H24       1.0000    0.53090   0.67060   0.25140   Biso      1.000     H          0.123239  
         H25       1.0000    0.43960   0.70640   0.29910   Biso      1.000     H          0.118952  
         H26       1.0000    0.43810   0.74030   0.81520   Biso      1.000     H          0.102245  
         H27       1.0000    0.52940   0.70450   0.76740   Biso      1.000     H          0.125579  
         H28       1.0000    0.65470   0.56950   0.97290   Biso      1.000     H          0.133456  
         H29       1.0000    0.03090   0.17060   0.75140   Biso      1.000     H          0.123239  
         H30       1.0000    0.93960   0.20640   0.79910   Biso      1.000     H          0.118952  
         H31       1.0000    0.93810   0.24030   0.31520   Biso      1.000     H          0.102245  
         H32       1.0000    0.02940   0.20450   0.26740   Biso      1.000     H          0.125579  
         H33       1.0000    0.15470   0.06950   0.47290   Biso      1.000     H          0.133456  
         H34       1.0000    0.46910   0.32940   0.25140   Biso      1.000     H          0.12324   
         H35       1.0000    0.56040   0.29360   0.29910   Biso      1.000     H          0.118952  
         H36       1.0000    0.56190   0.25970   0.81520   Biso      1.000     H          0.102244  
         H37       1.0000    0.47060   0.29550   0.76740   Biso      1.000     H          0.125579  
         H38       1.0000    0.34530   0.43050   0.97290   Biso      1.000     H          0.133456  
         H39       1.0000    0.96910   0.82940   0.75140   Biso      1.000     H          0.12324   
         H40       1.0000    0.06040   0.79360   0.79910   Biso      1.000     H          0.118952  
         H41       1.0000    0.06190   0.75970   0.31520   Biso      1.000     H          0.102244  
         H42       1.0000    0.97060   0.79550   0.26740   Biso      1.000     H          0.125579  
         H43       1.0000    0.84530   0.93050   0.47290   Biso      1.000     H          0.133456  
         H44       1.0000    0.56040   0.20640   0.79910   Biso      1.000     H          0.118952  
         H45       1.0000    0.46910   0.17060   0.75140   Biso      1.000     H          0.123239  
         H46       1.0000    0.34530   0.06950   0.47290   Biso      1.000     H          0.133457  
         H47       1.0000    0.93810   0.25970   0.81520   Biso      1.000     H          0.102245  
         H48       1.0000    0.15470   0.43050   0.97290   Biso      1.000     H          0.133456  
         H49       1.0000    0.53090   0.82940   0.75140   Biso      1.000     H          0.123239  
         H50       1.0000    0.84530   0.56950   0.97290   Biso      1.000     H          0.133456  
         H51       1.0000    0.97060   0.70450   0.76740   Biso      1.000     H          0.125579  
         H52       1.0000    0.06190   0.74030   0.81520   Biso      1.000     H          0.102244  
         H53       1.0000    0.06040   0.70640   0.29910   Biso      1.000     H          0.118952  
         H54       1.0000    0.43960   0.79360   0.79910   Biso      1.000     H          0.118952  
         H55       1.0000    0.03090   0.32940   0.25140   Biso      1.000     H          0.123239  
         H56       1.0000    0.96910   0.67060   0.25140   Biso      1.000     H          0.12324   
         H57       1.0000    0.93960   0.29360   0.29910   Biso      1.000     H          0.118952  
         H58       1.0000    0.43810   0.75970   0.31520   Biso      1.000     H          0.102245  
         H59       1.0000    0.02940   0.29550   0.76740   Biso      1.000     H          0.125579  
         H60       1.0000    0.52940   0.79550   0.26740   Biso      1.000     H          0.125579  
         Ho1       1.0000    0.25000   0.76630   0.88300   Biso      1.000     Ho          2.039614  
         Ho2       1.0000    0.75000   0.26630   0.38300   Biso      1.000     Ho          2.039614  
         Ho3       1.0000    0.75000   0.23370   0.88300   Biso      1.000     Ho          2.039614  
         Ho4       1.0000    0.25000   0.73370   0.38300   Biso      1.000     Ho          2.039614  
         O1        1.0000    0.15030   0.75220   0.77300   Biso      1.000     O          -0.490041           
         O2        1.0000    0.84970   0.25220   0.27300   Biso      1.000     O          -0.490041           
         O3        1.0000    0.81200   0.26540   0.02800   Biso      1.000     O          -0.784049           
         O4        1.0000    0.31200   0.76540   0.52800   Biso      1.000     O          -0.784049           
         O5        1.0000    0.75000   0.30370   0.16600   Biso      1.000     O          -0.732938           
         O6        1.0000    0.75000   0.19630   0.66600   Biso      1.000     O          -0.732938           
         O7        1.0000    0.18800   0.76540   0.52800   Biso      1.000     O          -0.784049           
         O8        1.0000    0.75000   0.19710   0.38200   Biso      1.000     O          -0.547358           
         O9        1.0000    0.68800   0.23460   0.52800   Biso      1.000     O          -0.784049           
         O10       1.0000    0.68800   0.26540   0.02800   Biso      1.000     O          -0.784049           
         O11       1.0000    0.34970   0.75220   0.77300   Biso      1.000     O          -0.490041           
         O12       1.0000    0.25000   0.80290   0.38200   Biso      1.000     O          -0.547358           
         O13       1.0000    0.65030   0.24780   0.77300   Biso      1.000     O          -0.490041           
         O14       1.0000    0.84970   0.24780   0.77300   Biso      1.000     O          -0.490041           
         O15       1.0000    0.81200   0.23460   0.52800   Biso      1.000     O          -0.784049           
         O16       1.0000    0.75000   0.30290   0.88200   Biso      1.000     O          -0.547358           
         O17       1.0000    0.18800   0.73460   0.02800   Biso      1.000     O          -0.784049           
         O18       1.0000    0.15030   0.74780   0.27300   Biso      1.000     O          -0.490041           
         O19       1.0000    0.34970   0.74780   0.27300   Biso      1.000     O          -0.490041           
         O20       1.0000    0.31200   0.73460   0.02800   Biso      1.000     O          -0.784049           
         O21       1.0000    0.25000   0.69710   0.88200   Biso      1.000     O          -0.547358           
         O22       1.0000    0.25000   0.69630   0.16600   Biso      1.000     O          -0.732938           
         O23       1.0000    0.65030   0.25220   0.27300   Biso      1.000     O          -0.490041           
         O24       1.0000    0.25000   0.80370   0.66600   Biso      1.000     O          -0.732938 