
##########################################################################
#               Crystallographic Information Format file
#               Produced by PyCifRW module
#
#  This is a CIF file.  CIF has been adopted by the International
#  Union of Crystallography as the standard for data archiving and
#  transmission.
#
#  For information on this file format, follow the CIF links at
#  http://www.iucr.org
##########################################################################

data_image0

_cell_length_a                          17.2489
_cell_length_b                          11.7539
_cell_length_c                          17.7527
_cell_angle_alpha                       90
_cell_angle_beta                        105.384
_cell_angle_gamma                       90
_symmetry_space_group_name_H-M          'P 1'
_symmetry_int_tables_number             1
loop_
  _symmetry_equiv_pos_as_xyz
         'x, y, z' 
loop_
  _atom_site_label
  _atom_site_occupancy
  _atom_site_fract_x
  _atom_site_fract_y
  _atom_site_fract_z
  _atom_site_thermal_displace_type
  _atom_site_B_iso_or_equiv
  _atom_site_type_symbol
  _atom_site_charge
         C1        1.0000    0.31980   0.19900   0.38230   Biso      1.000     C          -0.107149           
         C2        1.0000    0.69660   0.78640   0.28080   Biso      1.000     C          -0.126807           
         C3        1.0000    0.71690   0.71450   0.22880   Biso      1.000     C          -0.112274           
         C4        1.0000    0.13190   0.38850   0.28890   Biso      1.000     C          0.671867  
         C5        1.0000    0.30250   0.66860   0.43970   Biso      1.000     C          -0.12185599999999999          
         C6        1.0000    0.80250   0.83140   0.93970   Biso      1.000     C          -0.12185499999999999          
         C7        1.0000    0.78890   0.65370   0.26130   Biso      1.000     C          -0.10956300000000001          
         C8        1.0000    0.21690   0.78550   0.72880   Biso      1.000     C          -0.11228199999999999          
         C9        1.0000    0.19620   0.66910   0.49500   Biso      1.000     C          -0.111525           
         C10       1.0000    0.28890   0.84630   0.76130   Biso      1.000     C          -0.10956199999999999          
         C11       1.0000    0.30690   0.19350   0.30300   Biso      1.000     C          -0.10594  
         C12       1.0000    0.20500   0.31540   0.31300   Biso      1.000     C          -0.14516600000000002          
         C13       1.0000    0.18020   0.69900   0.11770   Biso      1.000     C          -0.107149           
         C14       1.0000    0.69310   0.80650   0.69700   Biso      1.000     C          -0.105951           
         C15       1.0000    0.29500   0.81540   0.18700   Biso      1.000     C          -0.14516600000000002          
         C16       1.0000    0.24090   0.26090   0.26330   Biso      1.000     C          -0.102351           
         C17       1.0000    0.75910   0.73910   0.73670   Biso      1.000     C          -0.102357           
         C18       1.0000    0.22980   0.61690   0.44310   Biso      1.000     C          -0.113266           
         C19       1.0000    0.39280   0.83790   0.50010   Biso      1.000     C          0.6819850000000001  
         C20       1.0000    0.72980   0.88310   0.94310   Biso      1.000     C          -0.11327999999999999          
         C21       1.0000    0.32170   0.81820   0.83810   Biso      1.000     C          -0.119395           
         C22       1.0000    0.89280   0.66210   0.00010   Biso      1.000     C          0.6819850000000001  
         C23       1.0000    0.61880   0.85450   0.01380   Biso      1.000     C          0.646266  
         C24       1.0000    0.82310   0.74080   0.98930   Biso      1.000     C          -0.12225599999999999          
         C25       1.0000    0.12310   0.64290   0.76970   Biso      1.000     C          0.6698    
         C26       1.0000    0.82170   0.68180   0.33810   Biso      1.000     C          -0.119395           
         C27       1.0000    0.63190   0.11150   0.78890   Biso      1.000     C          0.671867  
         C28       1.0000    0.39470   0.86750   0.89210   Biso      1.000     C          0.6781560000000001  
         C29       1.0000    0.88100   0.36260   0.94320   Biso      1.000     C          0.6739850000000001  
         C30       1.0000    0.70500   0.18460   0.81300   Biso      1.000     C          -0.14516600000000002          
         C31       1.0000    0.81980   0.30100   0.88230   Biso      1.000     C          -0.107149           
         C32       1.0000    0.32310   0.75920   0.48930   Biso      1.000     C          -0.12225599999999999          
         C33       1.0000    0.11880   0.64550   0.51380   Biso      1.000     C          0.646267  
         C34       1.0000    0.69620   0.83090   0.99500   Biso      1.000     C          -0.11151099999999999          
         C35       1.0000    0.11900   0.63740   0.05680   Biso      1.000     C          0.6739850000000001  
         C36       1.0000    0.21110   0.34630   0.73870   Biso      1.000     C          -0.10956300000000001          
         C37       1.0000    0.60530   0.13250   0.10790   Biso      1.000     C          0.678157  
         C38       1.0000    0.38120   0.14550   0.98620   Biso      1.000     C          0.646266  
         C39       1.0000    0.10720   0.33790   0.99990   Biso      1.000     C          0.6819850000000001  
         C40       1.0000    0.67830   0.18180   0.16190   Biso      1.000     C          -0.119404           
         C41       1.0000    0.27020   0.11690   0.05690   Biso      1.000     C          -0.11328099999999999          
         C42       1.0000    0.89470   0.63250   0.39210   Biso      1.000     C          0.6781560000000001  
         C43       1.0000    0.80340   0.28640   0.21920   Biso      1.000     C          -0.126807           
         C44       1.0000    0.17690   0.25920   0.01070   Biso      1.000     C          -0.122261           
         C45       1.0000    0.78310   0.21450   0.27120   Biso      1.000     C          -0.112275           
         C46       1.0000    0.19750   0.16860   0.06030   Biso      1.000     C          -0.12185  
         C47       1.0000    0.38100   0.13740   0.44320   Biso      1.000     C          0.6739850000000001  
         C48       1.0000    0.71110   0.15370   0.23870   Biso      1.000     C          -0.109555           
         C49       1.0000    0.80690   0.30650   0.80300   Biso      1.000     C          -0.10594  
         C50       1.0000    0.25910   0.76090   0.23670   Biso      1.000     C          -0.102351           
         C51       1.0000    0.19310   0.69350   0.19700   Biso      1.000     C          -0.10594  
         C52       1.0000    0.74090   0.23910   0.76330   Biso      1.000     C          -0.102351           
         C53       1.0000    0.87690   0.35710   0.23030   Biso      1.000     C          0.669801  
         C54       1.0000    0.68020   0.80100   0.61770   Biso      1.000     C          -0.10713699999999998          
         C55       1.0000    0.79500   0.68460   0.68700   Biso      1.000     C          -0.14515799999999998          
         C56       1.0000    0.69750   0.33140   0.56030   Biso      1.000     C          -0.12185499999999999          
         C57       1.0000    0.30380   0.16910   0.00500   Biso      1.000     C          -0.11151099999999999          
         C58       1.0000    0.28310   0.28550   0.77120   Biso      1.000     C          -0.11228099999999999          
         C59       1.0000    0.30340   0.21360   0.71920   Biso      1.000     C          -0.126799           
         C60       1.0000    0.36810   0.88850   0.21110   Biso      1.000     C          0.671867  
         C61       1.0000    0.77020   0.38310   0.55690   Biso      1.000     C          -0.11327999999999999          
         C62       1.0000    0.17830   0.31820   0.66190   Biso      1.000     C          -0.119395           
         C63       1.0000    0.60720   0.16210   0.49990   Biso      1.000     C          0.6819850000000001  
         C64       1.0000    0.88120   0.35450   0.48620   Biso      1.000     C          0.646266  
         C65       1.0000    0.67690   0.24080   0.51070   Biso      1.000     C          -0.12225599999999999          
         C66       1.0000    0.37690   0.14290   0.73030   Biso      1.000     C          0.6698    
         C67       1.0000    0.86810   0.61150   0.71110   Biso      1.000     C          0.671866  
         C68       1.0000    0.80380   0.33090   0.50500   Biso      1.000     C          -0.11151099999999999          
         C69       1.0000    0.10530   0.36750   0.60790   Biso      1.000     C          0.6781560000000001  
         C70       1.0000    0.61900   0.86260   0.55680   Biso      1.000     C          0.673984  
         C71       1.0000    0.62310   0.85710   0.26970   Biso      1.000     C          0.669801  
         C72       1.0000    0.19660   0.71360   0.78080   Biso      1.000     C          -0.126799           
         H1        1.0000    0.83800   0.34960   0.77810   Biso      1.000     H          0.137496  
         H2        1.0000    0.68650   0.70610   0.17740   Biso      1.000     H          0.13231099999999998           
         H3        1.0000    0.33320   0.64370   0.40710   Biso      1.000     H          0.134651  
         H4        1.0000    0.81120   0.60130   0.23380   Biso      1.000     H          0.14127699999999999           
         H5        1.0000    0.22390   0.26750   0.20920   Biso      1.000     H          0.133982  
         H6        1.0000    0.29260   0.05420   0.08670   Biso      1.000     H          0.131912  
         H7        1.0000    0.81350   0.20610   0.32260   Biso      1.000     H          0.13231099999999998           
         H8        1.0000    0.16680   0.14370   0.09290   Biso      1.000     H          0.134651  
         H9        1.0000    0.68880   0.10130   0.26620   Biso      1.000     H          0.141276  
         H10       1.0000    0.27610   0.76750   0.29080   Biso      1.000     H          0.133982  
         H11       1.0000    0.20740   0.55420   0.41330   Biso      1.000     H          0.131911  
         H12       1.0000    0.33800   0.15040   0.27810   Biso      1.000     H          0.137496  
         H13       1.0000    0.16200   0.65040   0.22190   Biso      1.000     H          0.137496  
         H14       1.0000    0.79260   0.44580   0.58670   Biso      1.000     H          0.131912  
         H15       1.0000    0.31350   0.29390   0.82260   Biso      1.000     H          0.13231099999999998           
         H16       1.0000    0.66680   0.35630   0.59290   Biso      1.000     H          0.134651  
         H17       1.0000    0.18880   0.39870   0.76620   Biso      1.000     H          0.14127699999999999           
         H18       1.0000    0.77610   0.73250   0.79080   Biso      1.000     H          0.133982  
         H19       1.0000    0.66200   0.84960   0.72190   Biso      1.000     H          0.137497  
         H20       1.0000    0.70740   0.94580   0.91330   Biso      1.000     H          0.131912  
         H21       1.0000    0.18650   0.79390   0.67740   Biso      1.000     H          0.13231099999999998           
         H22       1.0000    0.83320   0.85630   0.90710   Biso      1.000     H          0.134651  
         H23       1.0000    0.31120   0.89870   0.73380   Biso      1.000     H          0.14127699999999999           
         H24       1.0000    0.72390   0.23250   0.70920   Biso      1.000     H          0.133982  
         Nd1       1.0000    0.98682   0.43778   0.11185   Biso      1.000     Nd          2.145086  
         Nd2       1.0000    0.48682   0.06222   0.61185   Biso      1.000     Nd          2.145086  
         Nd3       1.0000    0.01247   0.39711   0.41461   Biso      1.000     Nd          2.142319  
         Nd4       1.0000    0.98753   0.60289   0.58539   Biso      1.000     Nd          2.142318  
         Nd5       1.0000    0.01318   0.56222   0.88815   Biso      1.000     Nd          2.145086  
         Nd6       1.0000    0.51247   0.10289   0.91461   Biso      1.000     Nd          2.142319  
         Nd7       1.0000    0.51318   0.93778   0.38815   Biso      1.000     Nd          2.145086  
         Nd8       1.0000    0.48753   0.89711   0.08539   Biso      1.000     Nd          2.142319  
         O1        1.0000    0.56840   0.05640   0.13510   Biso      1.000     O          -0.65088  
         O2        1.0000    0.40620   0.21610   0.94500   Biso      1.000     O          -0.6282810000000001           
         O3        1.0000    0.06390   0.32620   0.04610   Biso      1.000     O          -0.677841           
         O4        1.0000    0.11610   0.65640   0.98660   Biso      1.000     O          -0.644835           
         O5        1.0000    0.58580   0.16940   0.03880   Biso      1.000     O          -0.707446           
         O6        1.0000    0.09870   0.41010   0.94590   Biso      1.000     O          -0.6716880000000001           
         O7        1.0000    0.88130   0.42270   0.17580   Biso      1.000     O          -0.67262  
         O8        1.0000    0.93160   0.55640   0.36490   Biso      1.000     O          -0.65088  
         O9        1.0000    0.10510   0.43120   0.34370   Biso      1.000     O          -0.727286           
         O10       1.0000    0.10280   0.40440   0.21850   Biso      1.000     O          -0.6612140000000001           
         O11       1.0000    0.08000   0.55560   0.48870   Biso      1.000     O          -0.737748           
         O12       1.0000    0.42570   0.06660   0.42020   Biso      1.000     O          -0.725056           
         O13       1.0000    0.57030   0.84450   0.20600   Biso      1.000     O          -0.709616           
         O14       1.0000    0.59870   0.08990   0.44590   Biso      1.000     O          -0.6716880000000001           
         O15       1.0000    0.08580   0.33060   0.53880   Biso      1.000     O          -0.707446           
         O16       1.0000    0.61610   0.84360   0.48660   Biso      1.000     O          -0.644835           
         O17       1.0000    0.56390   0.17380   0.54610   Biso      1.000     O          -0.677841           
         O18       1.0000    0.90620   0.28390   0.44500   Biso      1.000     O          -0.6282810000000001           
         O19       1.0000    0.06840   0.44360   0.63510   Biso      1.000     O          -0.65088  
         O20       1.0000    0.89490   0.56880   0.65630   Biso      1.000     O          -0.727286           
         O21       1.0000    0.89720   0.59560   0.78150   Biso      1.000     O          -0.6612140000000001           
         O22       1.0000    0.92000   0.44440   0.51130   Biso      1.000     O          -0.737748           
         O23       1.0000    0.57430   0.93340   0.57980   Biso      1.000     O          -0.725056           
         O24       1.0000    0.42970   0.15550   0.79400   Biso      1.000     O          -0.709616           
         O25       1.0000    0.38130   0.07730   0.67580   Biso      1.000     O          -0.67262  
         O26       1.0000    0.39720   0.90440   0.28150   Biso      1.000     O          -0.6612140000000001           
         O27       1.0000    0.39490   0.93120   0.15630   Biso      1.000     O          -0.727286           
         O28       1.0000    0.07430   0.56660   0.07980   Biso      1.000     O          -0.725056           
         O29       1.0000    0.61870   0.92270   0.32420   Biso      1.000     O          -0.67262  
         O30       1.0000    0.40130   0.91010   0.55410   Biso      1.000     O          -0.6716880000000001           
         O31       1.0000    0.91420   0.66940   0.46120   Biso      1.000     O          -0.707446           
         O32       1.0000    0.11870   0.57730   0.82420   Biso      1.000     O          -0.67262  
         O33       1.0000    0.90130   0.58990   0.05410   Biso      1.000     O          -0.6716880000000001           
         O34       1.0000    0.41420   0.83060   0.96120   Biso      1.000     O          -0.707446           
         O35       1.0000    0.88390   0.34360   0.01340   Biso      1.000     O          -0.644835           
         O36       1.0000    0.93610   0.67380   0.95390   Biso      1.000     O          -0.677841           
         O37       1.0000    0.59380   0.78390   0.05500   Biso      1.000     O          -0.6282810000000001           
         O38       1.0000    0.43160   0.94360   0.86490   Biso      1.000     O          -0.65088  
         O39       1.0000    0.42000   0.05560   0.01130   Biso      1.000     O          -0.737748           
         O40       1.0000    0.60280   0.09560   0.71850   Biso      1.000     O          -0.6612140000000001           
         O41       1.0000    0.58000   0.94440   0.98870   Biso      1.000     O          -0.737748           
         O42       1.0000    0.60510   0.06880   0.84370   Biso      1.000     O          -0.727286           
         O43       1.0000    0.07030   0.65550   0.70600   Biso      1.000     O          -0.709616           
         O44       1.0000    0.38390   0.15640   0.51340   Biso      1.000     O          -0.644835           
         O45       1.0000    0.43610   0.82620   0.45390   Biso      1.000     O          -0.677841           
         O46       1.0000    0.09380   0.71610   0.55500   Biso      1.000     O          -0.6282800000000001           
         O47       1.0000    0.92570   0.43340   0.92020   Biso      1.000     O          -0.725056           
         O48       1.0000    0.92970   0.34450   0.29400   Biso      1.000     O          -0.709616           
         S1        1.0000    0.76595   0.78210   0.37129   Biso      1.000     S          0.154556  
         S2        1.0000    0.74597   0.21879   0.45841   Biso      1.000     S          0.183989  
         S3        1.0000    0.74846   0.71378   0.59136   Biso      1.000     S          0.152418  
         S4        1.0000    0.23405   0.21790   0.62871   Biso      1.000     S          0.154555  
         S5        1.0000    0.24597   0.28121   0.95841   Biso      1.000     S          0.183989  
         S6        1.0000    0.24846   0.78622   0.09136   Biso      1.000     S          0.15242   
         S7        1.0000    0.25403   0.78121   0.54159   Biso      1.000     S          0.18399000000000001           
         S8        1.0000    0.75403   0.71879   0.04159   Biso      1.000     S          0.183989  
         S9        1.0000    0.75154   0.21378   0.90864   Biso      1.000     S          0.15242   
         S10       1.0000    0.26595   0.71790   0.87129   Biso      1.000     S          0.154555  
         S11       1.0000    0.73405   0.28210   0.12871   Biso      1.000     S          0.154557  
         S12       1.0000    0.25154   0.28622   0.40864   Biso      1.000     S          0.15242 