
##########################################################################
#               Crystallographic Information Format file
#               Produced by PyCifRW module
#
#  This is a CIF file.  CIF has been adopted by the International
#  Union of Crystallography as the standard for data archiving and
#  transmission.
#
#  For information on this file format, follow the CIF links at
#  http://www.iucr.org
##########################################################################

data_image0

_cell_length_a                          31.3256
_cell_length_b                          5.8888
_cell_length_c                          20.4485
_cell_angle_alpha                       90
_cell_angle_beta                        102.229
_cell_angle_gamma                       90
_symmetry_space_group_name_H-M          'P 1'
_symmetry_int_tables_number             1
loop_
  _symmetry_equiv_pos_as_xyz
         'x, y, z' 
loop_
  _atom_site_label
  _atom_site_occupancy
  _atom_site_fract_x
  _atom_site_fract_y
  _atom_site_fract_z
  _atom_site_thermal_displace_type
  _atom_site_B_iso_or_equiv
  _atom_site_type_symbol
  _atom_site_charge
         C1        1.0000    0.24163   0.55180   0.53186   Biso      1.000     C          -0.141257           
         C2        1.0000    0.24163   0.44820   0.03186   Biso      1.000     C          -0.141258           
         C3        1.0000    0.18149   0.44220   0.43823   Biso      1.000     C          -0.126283           
         C4        1.0000    0.15707   0.45740   0.37818   Biso      1.000     C          -0.151583           
         C5        1.0000    0.01290   0.27550   0.62837   Biso      1.000     C          0.55416   
         C6        1.0000    0.05945   0.21670   0.26242   Biso      1.000     C          0.134868  
         C7        1.0000    0.00669   0.39500   0.56213   Biso      1.000     C          -0.027439           
         C8        1.0000    0.09349   0.35870   0.28971   Biso      1.000     C          -0.186601           
         C9        1.0000    0.12161   0.30030   0.34952   Biso      1.000     C          0.159158  
         C10       1.0000    0.98770   0.60840   0.55342   Biso      1.000     C          -0.105097           
         C11       1.0000    0.11384   0.09380   0.37825   Biso      1.000     C          -0.200731           
         C12       1.0000    0.07929   0.95990   0.34823   Biso      1.000     C          0.08642   
         C13       1.0000    0.01912   0.28740   0.50852   Biso      1.000     C          -0.116555           
         C14       1.0000    0.98710   0.27550   0.87163   Biso      1.000     C          0.55416   
         C15       1.0000    0.51912   0.21260   0.00852   Biso      1.000     C          -0.116555           
         C16       1.0000    0.81851   0.55780   0.56177   Biso      1.000     C          -0.126283           
         C17       1.0000    0.48770   0.89160   0.05342   Biso      1.000     C          -0.105097           
         C18       1.0000    0.50669   0.10500   0.06213   Biso      1.000     C          -0.027439           
         C19       1.0000    0.51290   0.22450   0.12837   Biso      1.000     C          0.55416   
         C20       1.0000    0.42071   0.54010   0.65177   Biso      1.000     C          0.086417  
         C21       1.0000    0.74163   0.05180   0.53186   Biso      1.000     C          -0.141258           
         C22       1.0000    0.72507   0.30180   0.43738   Biso      1.000     C          -0.147461           
         C23       1.0000    0.71663   0.10220   0.46915   Biso      1.000     C          0.114242  
         C24       1.0000    0.38616   0.40620   0.62175   Biso      1.000     C          -0.200729           
         C25       1.0000    0.77493   0.19820   0.56262   Biso      1.000     C          -0.14746  
         C26       1.0000    0.65707   0.95740   0.37818   Biso      1.000     C          -0.15162  
         C27       1.0000    0.37839   0.19970   0.65048   Biso      1.000     C          0.159161  
         C28       1.0000    0.55945   0.71670   0.26242   Biso      1.000     C          0.134868  
         C29       1.0000    0.21663   0.60220   0.46915   Biso      1.000     C          0.114246  
         C30       1.0000    0.40651   0.14130   0.71029   Biso      1.000     C          -0.186603           
         C31       1.0000    0.22507   0.80180   0.43738   Biso      1.000     C          -0.147461           
         C32       1.0000    0.22507   0.19820   0.93738   Biso      1.000     C          -0.147461           
         C33       1.0000    0.07929   0.04010   0.84823   Biso      1.000     C          0.086417  
         C34       1.0000    0.51912   0.78740   0.50852   Biso      1.000     C          -0.116555           
         C35       1.0000    0.48770   0.10840   0.55342   Biso      1.000     C          -0.105097           
         C36       1.0000    0.50669   0.89500   0.56213   Biso      1.000     C          -0.027439           
         C37       1.0000    0.51290   0.77550   0.62837   Biso      1.000     C          0.55416   
         C38       1.0000    0.11384   0.90620   0.87825   Biso      1.000     C          -0.200729           
         C39       1.0000    0.74163   0.94820   0.03186   Biso      1.000     C          -0.141257           
         C40       1.0000    0.72507   0.69820   0.93738   Biso      1.000     C          -0.147461           
         C41       1.0000    0.71663   0.89780   0.96915   Biso      1.000     C          0.114246  
         C42       1.0000    0.12161   0.69970   0.84952   Biso      1.000     C          0.159161  
         C43       1.0000    0.68149   0.05780   0.93823   Biso      1.000     C          -0.126283           
         C44       1.0000    0.09349   0.64130   0.78971   Biso      1.000     C          -0.186603           
         C45       1.0000    0.65707   0.04260   0.87818   Biso      1.000     C          -0.151583           
         C46       1.0000    0.55945   0.28330   0.76242   Biso      1.000     C          0.134868  
         C47       1.0000    0.05945   0.78330   0.76242   Biso      1.000     C          0.13487   
         C48       1.0000    0.59349   0.14130   0.78971   Biso      1.000     C          -0.186601           
         C49       1.0000    0.62161   0.19970   0.84952   Biso      1.000     C          0.159158  
         C50       1.0000    0.61384   0.40620   0.87825   Biso      1.000     C          -0.200731           
         C51       1.0000    0.15707   0.54260   0.87818   Biso      1.000     C          -0.15162  
         C52       1.0000    0.57929   0.54010   0.84823   Biso      1.000     C          0.08642   
         C53       1.0000    0.18149   0.55780   0.93823   Biso      1.000     C          -0.126245           
         C54       1.0000    0.75837   0.44820   0.46814   Biso      1.000     C          -0.141257           
         C55       1.0000    0.01912   0.71260   0.00852   Biso      1.000     C          -0.116555           
         C56       1.0000    0.21663   0.39780   0.96915   Biso      1.000     C          0.114242  
         C57       1.0000    0.98770   0.39160   0.05342   Biso      1.000     C          -0.105097           
         C58       1.0000    0.00669   0.60500   0.06213   Biso      1.000     C          -0.027439           
         C59       1.0000    0.01290   0.72450   0.12837   Biso      1.000     C          0.55416   
         C60       1.0000    0.94055   0.78330   0.73758   Biso      1.000     C          0.134868  
         C61       1.0000    0.59349   0.85870   0.28971   Biso      1.000     C          -0.1866   
         C62       1.0000    0.68149   0.94220   0.43823   Biso      1.000     C          -0.126245           
         C63       1.0000    0.78337   0.39780   0.53085   Biso      1.000     C          0.114246  
         C64       1.0000    0.25837   0.94820   0.46814   Biso      1.000     C          -0.141257           
         C65       1.0000    0.90651   0.35870   0.21029   Biso      1.000     C          -0.186603           
         C66       1.0000    0.87839   0.30030   0.15048   Biso      1.000     C          0.159162  
         C67       1.0000    0.40651   0.85870   0.21029   Biso      1.000     C          -0.186603           
         C68       1.0000    0.88616   0.90620   0.62175   Biso      1.000     C          -0.200731           
         C69       1.0000    0.88616   0.09380   0.12175   Biso      1.000     C          -0.200732           
         C70       1.0000    0.48710   0.77550   0.87163   Biso      1.000     C          0.55416   
         C71       1.0000    0.92071   0.95990   0.15177   Biso      1.000     C          0.08642   
         C72       1.0000    0.62161   0.80030   0.34952   Biso      1.000     C          0.159161  
         C73       1.0000    0.49331   0.89500   0.93787   Biso      1.000     C          -0.02744  
         C74       1.0000    0.51230   0.10840   0.94658   Biso      1.000     C          -0.105094           
         C75       1.0000    0.98088   0.28740   0.99148   Biso      1.000     C          -0.116552           
         C76       1.0000    0.44055   0.71670   0.23758   Biso      1.000     C          0.13487   
         C77       1.0000    0.48088   0.21260   0.49148   Biso      1.000     C          -0.116552           
         C78       1.0000    0.48088   0.78740   0.99148   Biso      1.000     C          -0.116552           
         C79       1.0000    0.51230   0.89160   0.44658   Biso      1.000     C          -0.105094           
         C80       1.0000    0.49331   0.10500   0.43787   Biso      1.000     C          -0.02744  
         C81       1.0000    0.48710   0.22450   0.37163   Biso      1.000     C          0.55416   
         C82       1.0000    0.34293   0.95740   0.12182   Biso      1.000     C          -0.15162  
         C83       1.0000    0.92071   0.04010   0.65177   Biso      1.000     C          0.08642   
         C84       1.0000    0.25837   0.05180   0.96814   Biso      1.000     C          -0.141257           
         C85       1.0000    0.31851   0.94220   0.06177   Biso      1.000     C          -0.126245           
         C86       1.0000    0.27493   0.30180   0.06262   Biso      1.000     C          -0.14746  
         C87       1.0000    0.94055   0.21670   0.23758   Biso      1.000     C          0.13487   
         C88       1.0000    0.28337   0.10220   0.03085   Biso      1.000     C          0.114242  
         C89       1.0000    0.84293   0.54260   0.62182   Biso      1.000     C          -0.151583           
         C90       1.0000    0.27493   0.69820   0.56262   Biso      1.000     C          -0.14746  
         C91       1.0000    0.61384   0.59380   0.37825   Biso      1.000     C          -0.200732           
         C92       1.0000    0.44055   0.28330   0.73758   Biso      1.000     C          0.13487   
         C93       1.0000    0.57929   0.45990   0.34823   Biso      1.000     C          0.08642   
         C94       1.0000    0.90651   0.64130   0.71029   Biso      1.000     C          -0.186601           
         C95       1.0000    0.99331   0.39500   0.93787   Biso      1.000     C          -0.02744  
         C96       1.0000    0.01230   0.60840   0.94658   Biso      1.000     C          -0.105094           
         C97       1.0000    0.34293   0.04260   0.62182   Biso      1.000     C          -0.15162  
         C98       1.0000    0.98088   0.71260   0.49148   Biso      1.000     C          -0.116552           
         C99       1.0000    0.84293   0.45740   0.12182   Biso      1.000     C          -0.15162  
         C100      1.0000    0.01230   0.39160   0.44658   Biso      1.000     C          -0.105094           
         C101      1.0000    0.99331   0.60500   0.43787   Biso      1.000     C          -0.02744  
         C102      1.0000    0.42071   0.45990   0.15177   Biso      1.000     C          0.086416  
         C103      1.0000    0.31851   0.05780   0.56177   Biso      1.000     C          -0.126245           
         C104      1.0000    0.75837   0.55180   0.96814   Biso      1.000     C          -0.141257           
         C105      1.0000    0.87839   0.69970   0.65048   Biso      1.000     C          0.159158  
         C106      1.0000    0.38616   0.59380   0.12175   Biso      1.000     C          -0.200729           
         C107      1.0000    0.77493   0.80180   0.06262   Biso      1.000     C          -0.14746  
         C108      1.0000    0.78337   0.60220   0.03085   Biso      1.000     C          0.114242  
         C109      1.0000    0.28337   0.89780   0.53085   Biso      1.000     C          0.114242  
         C110      1.0000    0.37839   0.80030   0.15048   Biso      1.000     C          0.159161  
         C111      1.0000    0.81851   0.44220   0.06177   Biso      1.000     C          -0.126246           
         C112      1.0000    0.98710   0.72450   0.37163   Biso      1.000     C          0.55416   
         H1        1.0000    0.07450   0.17970   0.86880   Biso      1.000     H          0.093852  
         H2        1.0000    0.92550   0.17970   0.63120   Biso      1.000     H          0.093852  
         H3        1.0000    0.86750   0.95450   0.58130   Biso      1.000     H          0.126282  
         H4        1.0000    0.90220   0.50360   0.73230   Biso      1.000     H          0.130071  
         H5        1.0000    0.09780   0.50360   0.76770   Biso      1.000     H          0.130071  
         H6        1.0000    0.13250   0.95450   0.91870   Biso      1.000     H          0.126282  
         H7        1.0000    0.40220   0.00360   0.73230   Biso      1.000     H          0.130071  
         H8        1.0000    0.83730   0.42030   0.64910   Biso      1.000     H          0.113327  
         H9        1.0000    0.45960   0.23950   0.77820   Biso      1.000     H          0.106266  
         H10       1.0000    0.36750   0.45450   0.58130   Biso      1.000     H          0.126282  
         H11       1.0000    0.42550   0.67970   0.63120   Biso      1.000     H          0.093852  
         H12       1.0000    0.33730   0.92030   0.64910   Biso      1.000     H          0.113329  
         H13       1.0000    0.32370   0.18330   0.53530   Biso      1.000     H          0.11208   
         H14       1.0000    0.82370   0.68330   0.53530   Biso      1.000     H          0.112083  
         H15       1.0000    0.03240   0.14160   0.51450   Biso      1.000     H          0.10993   
         H16       1.0000    0.97940   0.68310   0.59000   Biso      1.000     H          0.10973   
         H17       1.0000    0.29200   0.66170   0.60550   Biso      1.000     H          0.115754  
         H18       1.0000    0.23610   0.58330   0.05410   Biso      1.000     H          0.115386  
         H19       1.0000    0.26390   0.08330   0.44590   Biso      1.000     H          0.115386  
         H20       1.0000    0.52060   0.18310   0.91000   Biso      1.000     H          0.10973   
         H21       1.0000    0.17630   0.68330   0.96470   Biso      1.000     H          0.112081  
         H22       1.0000    0.16270   0.42030   0.85090   Biso      1.000     H          0.11333   
         H23       1.0000    0.46760   0.64160   0.98550   Biso      1.000     H          0.10993   
         H24       1.0000    0.04040   0.73950   0.72180   Biso      1.000     H          0.106266  
         H25       1.0000    0.20800   0.16170   0.89450   Biso      1.000     H          0.115754  
         H26       1.0000    0.95960   0.73950   0.77820   Biso      1.000     H          0.106266  
         H27       1.0000    0.53240   0.64160   0.51450   Biso      1.000     H          0.10993   
         H28       1.0000    0.59780   0.99640   0.26770   Biso      1.000     H          0.130071  
         H29       1.0000    0.63250   0.54550   0.41870   Biso      1.000     H          0.126282  
         H30       1.0000    0.57450   0.32030   0.36880   Biso      1.000     H          0.093852  
         H31       1.0000    0.96760   0.85840   0.48550   Biso      1.000     H          0.10993   
         H32       1.0000    0.02060   0.31690   0.41000   Biso      1.000     H          0.10973   
         H33       1.0000    0.76390   0.41670   0.94590   Biso      1.000     H          0.115386  
         H34       1.0000    0.79200   0.83830   0.10550   Biso      1.000     H          0.115754  
         H35       1.0000    0.82370   0.31670   0.03530   Biso      1.000     H          0.112081  
         H36       1.0000    0.83730   0.57970   0.14910   Biso      1.000     H          0.113329  
         H37       1.0000    0.95960   0.26050   0.27820   Biso      1.000     H          0.106266  
         H38       1.0000    0.90220   0.49640   0.23230   Biso      1.000     H          0.130071  
         H39       1.0000    0.86750   0.04550   0.08130   Biso      1.000     H          0.126282  
         H40       1.0000    0.92550   0.82030   0.13120   Biso      1.000     H          0.093852  
         H41       1.0000    0.02060   0.68310   0.91000   Biso      1.000     H          0.10973   
         H42       1.0000    0.46760   0.35840   0.48550   Biso      1.000     H          0.10993   
         H43       1.0000    0.52060   0.81690   0.41000   Biso      1.000     H          0.10973   
         H44       1.0000    0.26390   0.91670   0.94590   Biso      1.000     H          0.115386  
         H45       1.0000    0.29200   0.33830   0.10550   Biso      1.000     H          0.115754  
         H46       1.0000    0.32370   0.81670   0.03530   Biso      1.000     H          0.11208   
         H47       1.0000    0.33730   0.07970   0.14910   Biso      1.000     H          0.113329  
         H48       1.0000    0.45960   0.76050   0.27820   Biso      1.000     H          0.106266  
         H49       1.0000    0.40220   0.99640   0.23230   Biso      1.000     H          0.130071  
         H50       1.0000    0.36750   0.54550   0.08130   Biso      1.000     H          0.126282  
         H51       1.0000    0.42550   0.32030   0.13120   Biso      1.000     H          0.093852  
         H52       1.0000    0.96760   0.14160   0.98550   Biso      1.000     H          0.10993   
         H53       1.0000    0.66270   0.07970   0.35090   Biso      1.000     H          0.113329  
         H54       1.0000    0.67630   0.81670   0.46470   Biso      1.000     H          0.11208   
         H55       1.0000    0.54040   0.76050   0.22180   Biso      1.000     H          0.106266  
         H56       1.0000    0.73610   0.91670   0.55410   Biso      1.000     H          0.115386  
         H57       1.0000    0.47940   0.18310   0.59000   Biso      1.000     H          0.109731  
         H58       1.0000    0.73610   0.08330   0.05410   Biso      1.000     H          0.115386  
         H59       1.0000    0.70800   0.66170   0.89450   Biso      1.000     H          0.115754  
         H60       1.0000    0.67630   0.18330   0.96470   Biso      1.000     H          0.112083  
         H61       1.0000    0.66270   0.92030   0.85090   Biso      1.000     H          0.113327  
         H62       1.0000    0.54040   0.23950   0.72180   Biso      1.000     H          0.106266  
         H63       1.0000    0.59780   0.00360   0.76770   Biso      1.000     H          0.130071  
         H64       1.0000    0.63250   0.45450   0.91870   Biso      1.000     H          0.126282  
         H65       1.0000    0.57450   0.67970   0.86880   Biso      1.000     H          0.093852  
         H66       1.0000    0.79200   0.16170   0.60550   Biso      1.000     H          0.115754  
         H67       1.0000    0.03240   0.85840   0.01450   Biso      1.000     H          0.10993   
         H68       1.0000    0.70800   0.33830   0.39450   Biso      1.000     H          0.115754  
         H69       1.0000    0.23610   0.41670   0.55410   Biso      1.000     H          0.115386  
         H70       1.0000    0.97940   0.31690   0.09000   Biso      1.000     H          0.10973   
         H71       1.0000    0.17630   0.31670   0.46470   Biso      1.000     H          0.112083  
         H72       1.0000    0.16270   0.57970   0.35090   Biso      1.000     H          0.113327  
         H73       1.0000    0.04040   0.26050   0.22180   Biso      1.000     H          0.106266  
         H74       1.0000    0.09780   0.49640   0.26770   Biso      1.000     H          0.130071  
         H75       1.0000    0.13250   0.04550   0.41870   Biso      1.000     H          0.126282  
         H76       1.0000    0.07450   0.82030   0.36880   Biso      1.000     H          0.093852  
         H77       1.0000    0.20800   0.83830   0.39450   Biso      1.000     H          0.115754  
         H78       1.0000    0.47940   0.81690   0.09000   Biso      1.000     H          0.109731  
         H79       1.0000    0.76390   0.58330   0.44590   Biso      1.000     H          0.115386  
         H80       1.0000    0.53240   0.35840   0.01450   Biso      1.000     H          0.10993   
         N1        1.0000    0.44800   0.48040   0.70930   Biso      1.000     N          -0.213027           
         N2        1.0000    0.44800   0.51960   0.20930   Biso      1.000     N          -0.213027           
         N3        1.0000    0.05200   0.98040   0.79070   Biso      1.000     N          -0.213028           
         N4        1.0000    0.94800   0.98040   0.70930   Biso      1.000     N          -0.213028           
         N5        1.0000    0.05200   0.01960   0.29070   Biso      1.000     N          -0.213028           
         N6        1.0000    0.55200   0.48040   0.79070   Biso      1.000     N          -0.213027           
         N7        1.0000    0.94800   0.01960   0.20930   Biso      1.000     N          -0.213028           
         N8        1.0000    0.55200   0.51960   0.29070   Biso      1.000     N          -0.213028           
         O1        1.0000    0.49744   0.11160   0.32359   Biso      1.000     O          -0.566537           
         O2        1.0000    0.52610   0.57770   0.63404   Biso      1.000     O          -0.560543           
         O3        1.0000    0.99744   0.38840   0.82359   Biso      1.000     O          -0.566537           
         O4        1.0000    0.47390   0.42230   0.36596   Biso      1.000     O          -0.560543           
         O5        1.0000    0.99744   0.61160   0.32359   Biso      1.000     O          -0.566537           
         O6        1.0000    0.97390   0.92230   0.36596   Biso      1.000     O          -0.560543           
         O7        1.0000    0.50256   0.11160   0.17641   Biso      1.000     O          -0.566537           
         O8        1.0000    0.52610   0.42230   0.13404   Biso      1.000     O          -0.560543           
         O9        1.0000    0.97390   0.07770   0.86596   Biso      1.000     O          -0.560543           
         O10       1.0000    0.00256   0.61160   0.17641   Biso      1.000     O          -0.566537           
         O11       1.0000    0.50256   0.88840   0.67641   Biso      1.000     O          -0.566537           
         O12       1.0000    0.00256   0.38840   0.67641   Biso      1.000     O          -0.566537           
         O13       1.0000    0.02610   0.07770   0.63404   Biso      1.000     O          -0.560543           
         O14       1.0000    0.49744   0.88840   0.82359   Biso      1.000     O          -0.566537           
         O15       1.0000    0.47390   0.57770   0.86596   Biso      1.000     O          -0.560543           
         O16       1.0000    0.02610   0.92230   0.13404   Biso      1.000     O          -0.560543           
         Zn1       1.0000    0.50000   0.67886   0.75000   Biso      1.000     Zn          0.723159  
         Zn2       1.0000    0.50000   0.32114   0.25000   Biso      1.000     Zn          0.72316   
         Zn3       1.0000    0.00000   0.82114   0.25000   Biso      1.000     Zn          0.723159  
         Zn4       1.0000    0.00000   0.17886   0.75000   Biso      1.000     Zn          0.723159 