
##########################################################################
#               Crystallographic Information Format file
#               Produced by PyCifRW module
#
#  This is a CIF file.  CIF has been adopted by the International
#  Union of Crystallography as the standard for data archiving and
#  transmission.
#
#  For information on this file format, follow the CIF links at
#  http://www.iucr.org
##########################################################################

data_image0

_cell_length_a                          10.527
_cell_length_b                          10.527
_cell_length_c                          10.8872
_cell_angle_alpha                       101.098
_cell_angle_beta                        117.544
_cell_angle_gamma                       108.824
_symmetry_space_group_name_H-M          'P 1'
_symmetry_int_tables_number             1
loop_
  _symmetry_equiv_pos_as_xyz
         'x, y, z' 
loop_
  _atom_site_label
  _atom_site_occupancy
  _atom_site_fract_x
  _atom_site_fract_y
  _atom_site_fract_z
  _atom_site_thermal_displace_type
  _atom_site_B_iso_or_equiv
  _atom_site_type_symbol
  _atom_site_charge
         C1        1.0000    0.33110   0.79090   0.77920   Biso      1.000     C          -0.523562           
         C2        1.0000    0.40250   0.35117   0.33147   Biso      1.000     C          0.729269  
         C3        1.0000    0.99910   0.22328   0.62458   Biso      1.000     C          0.71849   
         C4        1.0000    0.66890   0.20910   0.22080   Biso      1.000     C          -0.523562           
         C5        1.0000    0.81670   0.19632   0.24382   Biso      1.000     C          0.801144  
         C6        1.0000    0.51970   0.07103   0.16853   Biso      1.000     C          0.734211  
         C7        1.0000    0.09870   0.37452   0.87542   Biso      1.000     C          0.720486  
         C8        1.0000    0.51170   0.55190   0.72080   Biso      1.000     C          -0.523161           
         C9        1.0000    0.54750   0.42712   0.74382   Biso      1.000     C          0.802795  
         C10       1.0000    0.59750   0.64883   0.66853   Biso      1.000     C          0.729269  
         C11       1.0000    0.00090   0.77672   0.37542   Biso      1.000     C          0.71849   
         C12       1.0000    0.18330   0.80368   0.75618   Biso      1.000     C          0.801143  
         C13       1.0000    0.48030   0.92897   0.83147   Biso      1.000     C          0.734211  
         C14       1.0000    0.90130   0.62548   0.12458   Biso      1.000     C          0.720486  
         C15       1.0000    0.12490   0.37490   0.75000   Biso      1.000     C          -0.49088999999999994          
         C16       1.0000    0.87510   0.62510   0.25000   Biso      1.000     C          -0.49088999999999994          
         C17       1.0000    0.48830   0.44810   0.27920   Biso      1.000     C          -0.523161           
         C18       1.0000    0.45250   0.57288   0.25618   Biso      1.000     C          0.802795  
         Gd1       1.0000    0.05206   0.36557   0.12041   Biso      1.000     Gd          2.130425  
         Gd2       1.0000    0.25484   0.06835   0.62041   Biso      1.000     Gd          2.1297759999999997  
         Gd3       1.0000    0.74516   0.93165   0.37959   Biso      1.000     Gd          2.1297740000000003  
         Gd4       1.0000    0.94794   0.63443   0.87959   Biso      1.000     Gd          2.130423  
         H1        1.0000    0.93000   0.56900   0.30300   Biso      1.000     H          0.19861700000000002           
         H2        1.0000    0.61700   0.48900   0.35200   Biso      1.000     H          0.158309  
         H3        1.0000    0.43800   0.37800   0.17600   Biso      1.000     H          0.17890699999999998           
         H4        1.0000    0.23400   0.37300   0.80300   Biso      1.000     H          0.200436  
         H5        1.0000    0.29800   0.73800   0.67600   Biso      1.000     H          0.178503  
         H6        1.0000    0.70200   0.26200   0.32400   Biso      1.000     H          0.178503  
         H7        1.0000    0.07000   0.43100   0.69700   Biso      1.000     H          0.19861700000000002           
         H8        1.0000    0.38300   0.51100   0.64800   Biso      1.000     H          0.158309  
         H9        1.0000    0.56200   0.62200   0.82400   Biso      1.000     H          0.17890699999999998           
         H10       1.0000    0.76600   0.62700   0.19700   Biso      1.000     H          0.200435  
         H11       1.0000    0.63700   0.26500   0.14800   Biso      1.000     H          0.15792799999999999           
         H12       1.0000    0.36300   0.73500   0.85200   Biso      1.000     H          0.15792799999999999           
         O1        1.0000    0.74682   0.68977   0.72535   Biso      1.000     O          -0.76248  
         O2        1.0000    0.14853   0.81035   0.44156   Biso      1.000     O          -0.604514           
         O3        1.0000    0.51701   0.68793   0.57188   Biso      1.000     O          -0.574607           
         O4        1.0000    0.43157   0.31463   0.71546   Biso      1.000     O          -0.75613  
         O5        1.0000    0.46442   0.02147   0.77465   Biso      1.000     O          -0.765597           
         O6        1.0000    0.14910   0.89406   0.70722   Biso      1.000     O          -0.678094           
         O7        1.0000    0.86879   0.70697   0.05844   Biso      1.000     O          -0.6066090000000001           
         O8        1.0000    0.68684   0.44188   0.79278   Biso      1.000     O          -0.679551           
         O9        1.0000    0.61605   0.94513   0.92812   Biso      1.000     O          -0.575937           
         O10       1.0000    0.95727   0.86959   0.40840   Biso      1.000     O          -0.771073           
         O11       1.0000    0.03881   0.45113   0.90840   Biso      1.000     O          -0.771764           
         O12       1.0000    0.56843   0.68537   0.28454   Biso      1.000     O          -0.75613  
         O13       1.0000    0.38395   0.05487   0.07188   Biso      1.000     O          -0.575937           
         O14       1.0000    0.13121   0.29303   0.94156   Biso      1.000     O          -0.6066090000000001           
         O15       1.0000    0.53558   0.97853   0.22535   Biso      1.000     O          -0.765597           
         O16       1.0000    0.85090   0.10594   0.29278   Biso      1.000     O          -0.678094           
         O17       1.0000    0.04273   0.13041   0.59160   Biso      1.000     O          -0.771072           
         O18       1.0000    0.48299   0.31207   0.42812   Biso      1.000     O          -0.574607           
         O19       1.0000    0.85147   0.18965   0.55844   Biso      1.000     O          -0.604514           
         O20       1.0000    0.25318   0.31023   0.27465   Biso      1.000     O          -0.76248  
         O21       1.0000    0.31316   0.55812   0.20722   Biso      1.000     O          -0.679551           
         O22       1.0000    0.09917   0.71611   0.78454   Biso      1.000     O          -0.755324           
         O23       1.0000    0.90083   0.28389   0.21546   Biso      1.000     O          -0.755324           
         O24       1.0000    0.96119   0.54887   0.09160   Biso      1.000     O          -0.771764 