
##########################################################################
#               Crystallographic Information Format file
#               Produced by PyCifRW module
#
#  This is a CIF file.  CIF has been adopted by the International
#  Union of Crystallography as the standard for data archiving and
#  transmission.
#
#  For information on this file format, follow the CIF links at
#  http://www.iucr.org
##########################################################################

data_image0

_cell_length_a                          10.5125
_cell_length_b                          10.5125
_cell_length_c                          10.8652
_cell_angle_alpha                       78.8877
_cell_angle_beta                        62.4543
_cell_angle_gamma                       108.834
_symmetry_space_group_name_H-M          'P 1'
_symmetry_int_tables_number             1
loop_
  _symmetry_equiv_pos_as_xyz
         'x, y, z' 
loop_
  _atom_site_label
  _atom_site_occupancy
  _atom_site_fract_x
  _atom_site_fract_y
  _atom_site_fract_z
  _atom_site_thermal_displace_type
  _atom_site_B_iso_or_equiv
  _atom_site_type_symbol
  _atom_site_charge
         C1        1.0000    0.18420   0.80360   0.24340   Biso      1.000     C          0.807951  
         C2        1.0000    0.40220   0.35110   0.66850   Biso      1.000     C          0.7410140000000001  
         C3        1.0000    0.90170   0.62490   0.87520   Biso      1.000     C          0.7466149999999999  
         C4        1.0000    0.81580   0.19640   0.75660   Biso      1.000     C          0.80795   
         C5        1.0000    0.66960   0.20960   0.77800   Biso      1.000     C          -0.549401           
         C6        1.0000    0.51960   0.07070   0.83150   Biso      1.000     C          0.747089  
         C7        1.0000    0.00010   0.77690   0.62480   Biso      1.000     C          0.743207  
         C8        1.0000    0.54700   0.42760   0.25660   Biso      1.000     C          0.806875  
         C9        1.0000    0.51240   0.55240   0.27800   Biso      1.000     C          -0.547058           
         C10       1.0000    0.59780   0.64890   0.33150   Biso      1.000     C          0.741015  
         C11       1.0000    0.09830   0.37510   0.12480   Biso      1.000     C          0.7466149999999999  
         C12       1.0000    0.33040   0.79040   0.22200   Biso      1.000     C          -0.5494020000000001           
         C13       1.0000    0.48040   0.92930   0.16850   Biso      1.000     C          0.747089  
         C14       1.0000    0.99990   0.22310   0.37520   Biso      1.000     C          0.743207  
         C15       1.0000    0.87560   0.62560   0.75000   Biso      1.000     C          -0.511296           
         C16       1.0000    0.12440   0.37440   0.25000   Biso      1.000     C          -0.511296           
         C17       1.0000    0.45300   0.57240   0.74340   Biso      1.000     C          0.806876  
         C18       1.0000    0.48760   0.44760   0.72200   Biso      1.000     C          -0.547058           
         Gd1       1.0000    0.05203   0.36555   0.87957   Biso      1.000     Gd          2.128188  
         Gd2       1.0000    0.25488   0.06840   0.37957   Biso      1.000     Gd          2.128151  
         Gd3       1.0000    0.74512   0.93160   0.62043   Biso      1.000     Gd          2.12815   
         Gd4       1.0000    0.94797   0.63445   0.12043   Biso      1.000     Gd          2.128186  
         H1        1.0000    0.22900   0.39400   0.21900   Biso      1.000     H          0.190465  
         H2        1.0000    0.46000   0.38490   0.81810   Biso      1.000     H          0.188073  
         H3        1.0000    0.60410   0.48880   0.64950   Biso      1.000     H          0.166471  
         H4        1.0000    0.88700   0.55200   0.71900   Biso      1.000     H          0.18751500000000002           
         H5        1.0000    0.36170   0.74640   0.14950   Biso      1.000     H          0.16558699999999998           
         H6        1.0000    0.63830   0.25360   0.85050   Biso      1.000     H          0.16558699999999998           
         H7        1.0000    0.77100   0.60600   0.78100   Biso      1.000     H          0.190465  
         H8        1.0000    0.54000   0.61510   0.18190   Biso      1.000     H          0.188073  
         H9        1.0000    0.39590   0.51120   0.35050   Biso      1.000     H          0.166471  
         H10       1.0000    0.11300   0.44800   0.28100   Biso      1.000     H          0.18751500000000002           
         H11       1.0000    0.70300   0.27810   0.68190   Biso      1.000     H          0.188357  
         H12       1.0000    0.29700   0.72190   0.31810   Biso      1.000     H          0.188357  
         O1        1.0000    0.43130   0.31400   0.28470   Biso      1.000     O          -0.755463           
         O2        1.0000    0.74720   0.69020   0.27460   Biso      1.000     O          -0.767151           
         O3        1.0000    0.51740   0.68750   0.42750   Biso      1.000     O          -0.5749989999999999           
         O4        1.0000    0.03800   0.45090   0.09210   Biso      1.000     O          -0.771502           
         O5        1.0000    0.09870   0.71600   0.21530   Biso      1.000     O          -0.755432           
         O6        1.0000    0.14890   0.89420   0.29290   Biso      1.000     O          -0.6813239999999999           
         O7        1.0000    0.46480   0.02180   0.22540   Biso      1.000     O          -0.771151           
         O8        1.0000    0.68710   0.44180   0.20710   Biso      1.000     O          -0.68188  
         O9        1.0000    0.61500   0.94490   0.07250   Biso      1.000     O          -0.576058           
         O10       1.0000    0.13090   0.29290   0.05840   Biso      1.000     O          -0.612323           
         O11       1.0000    0.14870   0.81070   0.55840   Biso      1.000     O          -0.609592           
         O12       1.0000    0.96200   0.54910   0.90790   Biso      1.000     O          -0.771502           
         O13       1.0000    0.38500   0.05510   0.92750   Biso      1.000     O          -0.576059           
         O14       1.0000    0.53520   0.97820   0.77460   Biso      1.000     O          -0.771151           
         O15       1.0000    0.90130   0.28400   0.78470   Biso      1.000     O          -0.755432           
         O16       1.0000    0.85110   0.10580   0.70710   Biso      1.000     O          -0.6813239999999999           
         O17       1.0000    0.86910   0.70710   0.94160   Biso      1.000     O          -0.612322           
         O18       1.0000    0.48260   0.31250   0.57250   Biso      1.000     O          -0.5749989999999999           
         O19       1.0000    0.25280   0.30980   0.72540   Biso      1.000     O          -0.767151           
         O20       1.0000    0.56870   0.68600   0.71530   Biso      1.000     O          -0.755463           
         O21       1.0000    0.31290   0.55820   0.79290   Biso      1.000     O          -0.68188  
         O22       1.0000    0.04300   0.13010   0.40790   Biso      1.000     O          -0.770929           
         O23       1.0000    0.95700   0.86990   0.59210   Biso      1.000     O          -0.770929           
         O24       1.0000    0.85130   0.18930   0.44160   Biso      1.000     O          -0.609592 