
##########################################################################
#               Crystallographic Information Format file
#               Produced by PyCifRW module
#
#  This is a CIF file.  CIF has been adopted by the International
#  Union of Crystallography as the standard for data archiving and
#  transmission.
#
#  For information on this file format, follow the CIF links at
#  http://www.iucr.org
##########################################################################

data_image0

_cell_length_a                          10.633
_cell_length_b                          10.633
_cell_length_c                          11.0118
_cell_angle_alpha                       78.5954
_cell_angle_beta                        62.5285
_cell_angle_gamma                       108.511
_symmetry_space_group_name_H-M          'P 1'
_symmetry_int_tables_number             1
loop_
  _symmetry_equiv_pos_as_xyz
         'x, y, z' 
loop_
  _atom_site_label
  _atom_site_occupancy
  _atom_site_fract_x
  _atom_site_fract_y
  _atom_site_fract_z
  _atom_site_thermal_displace_type
  _atom_site_B_iso_or_equiv
  _atom_site_type_symbol
  _atom_site_charge
         C1        1.0000    0.31190   0.19480   0.25790   Biso      1.000     C          0.808384  
         C2        1.0000    0.37520   0.62520   0.25000   Biso      1.000     C          -0.188346           
         C3        1.0000    0.62480   0.37480   0.75000   Biso      1.000     C          -0.188358           
         C4        1.0000    0.50150   0.77490   0.12480   Biso      1.000     C          0.621759  
         C5        1.0000    0.16530   0.20910   0.28080   Biso      1.000     C          -0.545973           
         C6        1.0000    0.01720   0.07220   0.33240   Biso      1.000     C          0.731159  
         C7        1.0000    0.39970   0.62630   0.37520   Biso      1.000     C          0.624412  
         C8        1.0000    0.95270   0.56980   0.24210   Biso      1.000     C          0.808317  
         C9        1.0000    0.98990   0.44610   0.21920   Biso      1.000     C          -0.547598           
         C10       1.0000    0.90460   0.34960   0.16760   Biso      1.000     C          0.733489  
         C11       1.0000    0.68810   0.80520   0.74210   Biso      1.000     C          0.808383  
         C12       1.0000    0.83470   0.79090   0.71920   Biso      1.000     C          -0.545981           
         C13       1.0000    0.98280   0.92780   0.66760   Biso      1.000     C          0.731157  
         C14       1.0000    0.60030   0.37370   0.62480   Biso      1.000     C          0.624399  
         C15       1.0000    0.49850   0.22510   0.87520   Biso      1.000     C          0.621773  
         C16       1.0000    0.01010   0.55390   0.78080   Biso      1.000     C          -0.54759  
         C17       1.0000    0.09540   0.65040   0.83240   Biso      1.000     C          0.733494  
         C18       1.0000    0.04730   0.43020   0.75790   Biso      1.000     C          0.808314  
         H1        1.0000    0.12950   0.24640   0.35590   Biso      1.000     H          0.171236  
         H2        1.0000    0.19290   0.27440   0.18830   Biso      1.000     H          0.195711  
         H3        1.0000    0.10230   0.48540   0.14410   Biso      1.000     H          0.170989  
         H4        1.0000    0.96270   0.38120   0.31170   Biso      1.000     H          0.196117  
         H5        1.0000    0.87050   0.75360   0.64410   Biso      1.000     H          0.171238  
         H6        1.0000    0.80710   0.72560   0.81170   Biso      1.000     H          0.195714  
         H7        1.0000    0.89770   0.51460   0.85590   Biso      1.000     H          0.170987  
         H8        1.0000    0.03730   0.61880   0.68830   Biso      1.000     H          0.196115  
         O1        1.0000    0.35326   0.19484   0.93990   Biso      1.000     O          -0.566258           
         O2        1.0000    0.75561   0.30661   0.22700   Biso      1.000     O          -0.774907           
         O3        1.0000    0.98490   0.31210   0.07180   Biso      1.000     O          -0.558612           
         O4        1.0000    0.81530   0.55590   0.29020   Biso      1.000     O          -0.689008           
         O5        1.0000    0.06720   0.68040   0.21520   Biso      1.000     O          -0.763712           
         O6        1.0000    0.03361   0.98261   0.27300   Biso      1.000     O          -0.773386           
         O7        1.0000    0.36526   0.70684   0.43990   Biso      1.000     O          -0.567923           
         O8        1.0000    0.39560   0.28240   0.28480   Biso      1.000     O          -0.764455           
         O9        1.0000    0.34610   0.10550   0.20980   Biso      1.000     O          -0.68913  
         O10       1.0000    0.88390   0.05670   0.42820   Biso      1.000     O          -0.558677           
         O11       1.0000    0.54070   0.13250   0.90880   Biso      1.000     O          -0.745095           
         O12       1.0000    0.45870   0.55050   0.40880   Biso      1.000     O          -0.74563  
         O13       1.0000    0.60440   0.71760   0.71520   Biso      1.000     O          -0.764458           
         O14       1.0000    0.64674   0.80516   0.06010   Biso      1.000     O          -0.566294           
         O15       1.0000    0.11610   0.94330   0.57180   Biso      1.000     O          -0.558696           
         O16       1.0000    0.96639   0.01739   0.72700   Biso      1.000     O          -0.773387           
         O17       1.0000    0.63474   0.29316   0.56010   Biso      1.000     O          -0.56796  
         O18       1.0000    0.54130   0.44950   0.59120   Biso      1.000     O          -0.745626           
         O19       1.0000    0.93280   0.31960   0.78480   Biso      1.000     O          -0.76371  
         O20       1.0000    0.18470   0.44410   0.70980   Biso      1.000     O          -0.689008           
         O21       1.0000    0.01510   0.68790   0.92820   Biso      1.000     O          -0.558604           
         O22       1.0000    0.24439   0.69339   0.77300   Biso      1.000     O          -0.774907           
         O23       1.0000    0.45930   0.86750   0.09120   Biso      1.000     O          -0.745092           
         O24       1.0000    0.65390   0.89450   0.79020   Biso      1.000     O          -0.68913  
         Pr1       1.0000    0.24364   0.93040   0.11976   Biso      1.000     Pr          2.208781  
         Pr2       1.0000    0.55016   0.36340   0.38024   Biso      1.000     Pr          2.2084    
         Pr3       1.0000    0.75636   0.06960   0.88024   Biso      1.000     Pr          2.208789  
         Pr4       1.0000    0.44984   0.63660   0.61976   Biso      1.000     Pr          2.208393 