
##########################################################################
#               Crystallographic Information Format file
#               Produced by PyCifRW module
#
#  This is a CIF file.  CIF has been adopted by the International
#  Union of Crystallography as the standard for data archiving and
#  transmission.
#
#  For information on this file format, follow the CIF links at
#  http://www.iucr.org
##########################################################################

data_image0

_cell_length_a                          10.6412
_cell_length_b                          10.6412
_cell_length_c                          11.0154
_cell_angle_alpha                       78.614
_cell_angle_beta                        62.5347
_cell_angle_gamma                       108.555
_symmetry_space_group_name_H-M          'P 1'
_symmetry_int_tables_number             1
loop_
  _symmetry_equiv_pos_as_xyz
         'x, y, z' 
loop_
  _atom_site_label
  _atom_site_occupancy
  _atom_site_fract_x
  _atom_site_fract_y
  _atom_site_fract_z
  _atom_site_thermal_displace_type
  _atom_site_B_iso_or_equiv
  _atom_site_type_symbol
  _atom_site_charge
         C1        1.0000    0.48220   0.42750   0.16830   Biso      1.000     C          0.739382  
         C2        1.0000    0.87490   0.12490   0.75000   Biso      1.000     C          -0.5022840000000001           
         C3        1.0000    0.12510   0.87510   0.25000   Biso      1.000     C          -0.502283           
         C4        1.0000    0.00130   0.27490   0.62480   Biso      1.000     C          0.732329  
         C5        1.0000    0.18900   0.30500   0.24200   Biso      1.000     C          0.796613  
         C6        1.0000    0.33450   0.29210   0.21960   Biso      1.000     C          -0.541342           
         C7        1.0000    0.89970   0.12610   0.87520   Biso      1.000     C          0.734085  
         C8        1.0000    0.54700   0.93100   0.25800   Biso      1.000     C          0.797403  
         C9        1.0000    0.51170   0.05410   0.28040   Biso      1.000     C          -0.5445949999999999           
         C10       1.0000    0.59580   0.15050   0.33170   Biso      1.000     C          0.742919  
         C11       1.0000    0.99870   0.72510   0.37520   Biso      1.000     C          0.732329  
         C12       1.0000    0.81100   0.69500   0.75800   Biso      1.000     C          0.796613  
         C13       1.0000    0.51780   0.57250   0.83170   Biso      1.000     C          0.739383  
         C14       1.0000    0.10030   0.87390   0.12480   Biso      1.000     C          0.7340840000000001  
         C15       1.0000    0.45300   0.06900   0.74200   Biso      1.000     C          0.797403  
         C16       1.0000    0.48830   0.94590   0.71960   Biso      1.000     C          -0.5445949999999999           
         C17       1.0000    0.66550   0.70790   0.78040   Biso      1.000     C          -0.541342           
         C18       1.0000    0.40420   0.84950   0.66830   Biso      1.000     C          0.742919  
         H1        1.0000    0.89200   0.05100   0.72300   Biso      1.000     H          0.186083  
         H2        1.0000    0.45100   0.88600   0.81700   Biso      1.000     H          0.188379  
         H3        1.0000    0.22600   0.88500   0.22300   Biso      1.000     H          0.18754200000000001           
         H4        1.0000    0.70300   0.76800   0.68300   Biso      1.000     H          0.18803399999999998           
         H5        1.0000    0.64100   0.75600   0.85100   Biso      1.000     H          0.166823  
         H6        1.0000    0.10800   0.94900   0.27700   Biso      1.000     H          0.186083  
         H7        1.0000    0.60700   0.99200   0.64900   Biso      1.000     H          0.167951  
         H8        1.0000    0.39300   0.00800   0.35100   Biso      1.000     H          0.167951  
         H9        1.0000    0.77400   0.11500   0.77700   Biso      1.000     H          0.18754200000000001           
         H10       1.0000    0.29700   0.23200   0.31700   Biso      1.000     H          0.18803399999999998           
         H11       1.0000    0.35900   0.24400   0.14900   Biso      1.000     H          0.166823  
         H12       1.0000    0.54900   0.11400   0.18300   Biso      1.000     H          0.188378  
         O1        1.0000    0.38520   0.55720   0.92780   Biso      1.000     O          -0.582438           
         O2        1.0000    0.74333   0.19343   0.27370   Biso      1.000     O          -0.7751   
         O3        1.0000    0.43270   0.81940   0.28570   Biso      1.000     O          -0.768009           
         O4        1.0000    0.68430   0.94380   0.21010   Biso      1.000     O          -0.6901619999999999           
         O5        1.0000    0.95889   0.05085   0.90884   Biso      1.000     O          -0.790277           
         O6        1.0000    0.95969   0.36773   0.59116   Biso      1.000     O          -0.789619           
         O7        1.0000    0.51500   0.18700   0.42780   Biso      1.000     O          -0.581882           
         O8        1.0000    0.15390   0.39440   0.28990   Biso      1.000     O          -0.689565           
         O9        1.0000    0.10510   0.21840   0.21430   Biso      1.000     O          -0.768368           
         O10       1.0000    0.46713   0.51703   0.22630   Biso      1.000     O          -0.772087           
         O11       1.0000    0.85390   0.69471   0.43899   Biso      1.000     O          -0.613564           
         O12       1.0000    0.86630   0.20711   0.93899   Biso      1.000     O          -0.614258           
         O13       1.0000    0.04031   0.63227   0.40884   Biso      1.000     O          -0.789619           
         O14       1.0000    0.61480   0.44280   0.07220   Biso      1.000     O          -0.582438           
         O15       1.0000    0.89490   0.78160   0.78570   Biso      1.000     O          -0.768368           
         O16       1.0000    0.53287   0.48297   0.77370   Biso      1.000     O          -0.772087           
         O17       1.0000    0.48500   0.81300   0.57220   Biso      1.000     O          -0.581882           
         O18       1.0000    0.13370   0.79289   0.06101   Biso      1.000     O          -0.614258           
         O19       1.0000    0.04111   0.94915   0.09116   Biso      1.000     O          -0.790277           
         O20       1.0000    0.31570   0.05620   0.78990   Biso      1.000     O          -0.6901619999999999           
         O21       1.0000    0.56730   0.18060   0.71430   Biso      1.000     O          -0.768009           
         O22       1.0000    0.25667   0.80657   0.72630   Biso      1.000     O          -0.7751   
         O23       1.0000    0.14610   0.30529   0.56101   Biso      1.000     O          -0.613564           
         O24       1.0000    0.84610   0.60560   0.71010   Biso      1.000     O          -0.689565           
         Pr1       1.0000    0.25640   0.56964   0.38008   Biso      1.000     Pr          2.1980880000000003  
         Pr2       1.0000    0.94972   0.13648   0.11992   Biso      1.000     Pr          2.197921  
         Pr3       1.0000    0.74360   0.43036   0.61992   Biso      1.000     Pr          2.1980880000000003  
         Pr4       1.0000    0.05028   0.86352   0.88008   Biso      1.000     Pr          2.19792 