
##########################################################################
#               Crystallographic Information Format file
#               Produced by PyCifRW module
#
#  This is a CIF file.  CIF has been adopted by the International
#  Union of Crystallography as the standard for data archiving and
#  transmission.
#
#  For information on this file format, follow the CIF links at
#  http://www.iucr.org
##########################################################################

data_image0

_cell_length_a                          14.16
_cell_length_b                          7.271
_cell_length_c                          8.982
_cell_angle_alpha                       90
_cell_angle_beta                        108.851
_cell_angle_gamma                       90
_symmetry_space_group_name_H-M          'P 1'
_symmetry_int_tables_number             1
loop_
  _symmetry_equiv_pos_as_xyz
         'x, y, z' 
loop_
  _atom_site_label
  _atom_site_occupancy
  _atom_site_fract_x
  _atom_site_fract_y
  _atom_site_fract_z
  _atom_site_thermal_displace_type
  _atom_site_B_iso_or_equiv
  _atom_site_type_symbol
  _atom_site_charge
         C1        1.0000    0.91101   0.60550   0.97690   Biso      1.000     C          0.353056  
         C2        1.0000    0.00000   0.30070   0.50000   Biso      1.000     C          -0.415573           
         C3        1.0000    0.00000   0.30010   0.00000   Biso      1.000     C          -0.407314           
         C4        1.0000    0.07923   0.39440   0.60550   Biso      1.000     C          0.32122   
         C5        1.0000    0.08899   0.60550   0.02310   Biso      1.000     C          0.353054  
         C6        1.0000    0.50000   0.80010   0.00000   Biso      1.000     C          -0.407314           
         C7        1.0000    0.50000   0.19990   0.00000   Biso      1.000     C          -0.407314           
         C8        1.0000    0.57923   0.89440   0.60550   Biso      1.000     C          0.321219  
         C9        1.0000    0.58899   0.10550   0.02310   Biso      1.000     C          0.353056  
         C10       1.0000    0.00000   0.69990   0.00000   Biso      1.000     C          -0.407313           
         C11       1.0000    0.07923   0.60560   0.60550   Biso      1.000     C          0.32122   
         C12       1.0000    0.08899   0.39450   0.02310   Biso      1.000     C          0.353055  
         C13       1.0000    0.41101   0.10550   0.97690   Biso      1.000     C          0.353055  
         C14       1.0000    0.42077   0.89440   0.39450   Biso      1.000     C          0.321218  
         C15       1.0000    0.57923   0.10560   0.60550   Biso      1.000     C          0.321221  
         C16       1.0000    0.58899   0.89450   0.02310   Biso      1.000     C          0.353055  
         C17       1.0000    0.92077   0.39440   0.39450   Biso      1.000     C          0.321219  
         C18       1.0000    0.00000   0.69930   0.50000   Biso      1.000     C          -0.415572           
         C19       1.0000    0.92077   0.60560   0.39450   Biso      1.000     C          0.321222  
         C20       1.0000    0.91101   0.39450   0.97690   Biso      1.000     C          0.353056  
         C21       1.0000    0.50000   0.80070   0.50000   Biso      1.000     C          -0.41557  
         C22       1.0000    0.42077   0.10560   0.39450   Biso      1.000     C          0.321219  
         C23       1.0000    0.41101   0.89450   0.97690   Biso      1.000     C          0.353055  
         C24       1.0000    0.50000   0.19930   0.50000   Biso      1.000     C          -0.41557  
         Ca1       1.0000    0.77274   0.00000   0.91216   Biso      1.000     Ca          1.412039  
         Ca2       1.0000    0.22726   0.00000   0.08784   Biso      1.000     Ca          1.41204   
         Ca3       1.0000    0.72726   0.50000   0.08784   Biso      1.000     Ca          1.412039  
         Ca4       1.0000    0.27274   0.50000   0.91216   Biso      1.000     Ca          1.41204   
         H1        1.0000    0.00000   0.15160   0.50000   Biso      1.000     H          0.132395  
         H2        1.0000    0.00000   0.15120   0.00000   Biso      1.000     H          0.105037  
         H3        1.0000    0.00000   0.84880   0.00000   Biso      1.000     H          0.105037  
         H4        1.0000    0.50000   0.34840   0.50000   Biso      1.000     H          0.132395  
         H5        1.0000    0.00000   0.84840   0.50000   Biso      1.000     H          0.132397  
         H6        1.0000    0.50000   0.65160   0.50000   Biso      1.000     H          0.132397  
         H7        1.0000    0.50000   0.65120   0.00000   Biso      1.000     H          0.105037  
         H8        1.0000    0.50000   0.34880   0.00000   Biso      1.000     H          0.105037  
         O1        1.0000    0.32740   0.81970   0.95680   Biso      1.000     O          -0.540385           
         O2        1.0000    0.82740   0.68030   0.95680   Biso      1.000     O          -0.540384           
         O3        1.0000    0.32740   0.18030   0.95680   Biso      1.000     O          -0.540386           
         O4        1.0000    0.15303   0.31950   0.70650   Biso      1.000     O          -0.547184           
         O5        1.0000    0.17260   0.68030   0.04320   Biso      1.000     O          -0.540385           
         O6        1.0000    0.65303   0.81950   0.70650   Biso      1.000     O          -0.547185           
         O7        1.0000    0.67260   0.18030   0.04320   Biso      1.000     O          -0.540384           
         O8        1.0000    0.15303   0.68050   0.70650   Biso      1.000     O          -0.547184           
         O9        1.0000    0.17260   0.31970   0.04320   Biso      1.000     O          -0.540385           
         O10       1.0000    0.65303   0.18050   0.70650   Biso      1.000     O          -0.547185           
         O11       1.0000    0.67260   0.81970   0.04320   Biso      1.000     O          -0.540384           
         O12       1.0000    0.84697   0.68050   0.29350   Biso      1.000     O          -0.547184           
         O13       1.0000    0.82740   0.31970   0.95680   Biso      1.000     O          -0.540384           
         O14       1.0000    0.34697   0.18050   0.29350   Biso      1.000     O          -0.547185           
         O15       1.0000    0.84697   0.31950   0.29350   Biso      1.000     O          -0.547184           
         O16       1.0000    0.34697   0.81950   0.29350   Biso      1.000     O          -0.547185 