
##########################################################################
#               Crystallographic Information Format file
#               Produced by PyCifRW module
#
#  This is a CIF file.  CIF has been adopted by the International
#  Union of Crystallography as the standard for data archiving and
#  transmission.
#
#  For information on this file format, follow the CIF links at
#  http://www.iucr.org
##########################################################################

data_image0

_cell_length_a                          10.8528
_cell_length_b                          12.2516
_cell_length_c                          16.9031
_cell_angle_alpha                       104.462
_cell_angle_beta                        93.659
_cell_angle_gamma                       101.404
_symmetry_space_group_name_H-M          'P 1'
_symmetry_int_tables_number             1
loop_
  _symmetry_equiv_pos_as_xyz
         'x, y, z' 
loop_
  _atom_site_label
  _atom_site_occupancy
  _atom_site_fract_x
  _atom_site_fract_y
  _atom_site_fract_z
  _atom_site_thermal_displace_type
  _atom_site_B_iso_or_equiv
  _atom_site_type_symbol
  _atom_site_charge
         C1        1.0000    0.54540   0.58140   0.31010   Biso      1.000     C          0.666595  
         C2        1.0000    0.38040   0.64550   0.15330   Biso      1.000     C          0.680155  
         C3        1.0000    0.59430   0.80830   0.88730   Biso      1.000     C          0.628821  
         C4        1.0000    0.52220   0.84430   0.02720   Biso      1.000     C          -0.091914           
         C5        1.0000    0.47270   0.80670   0.09120   Biso      1.000     C          -0.102089           
         C6        1.0000    0.42990   0.68840   0.08230   Biso      1.000     C          -0.020242           
         C7        1.0000    0.43550   0.61100   0.00800   Biso      1.000     C          -0.099827           
         C8        1.0000    0.48910   0.64830   0.94460   Biso      1.000     C          -0.109027           
         C9        1.0000    0.53460   0.76610   0.95470   Biso      1.000     C          -0.031967           
         C10       1.0000    0.92390   0.37620   0.74070   Biso      1.000     C          0.659143  
         C11       1.0000    0.07610   0.62380   0.25930   Biso      1.000     C          0.659143  
         C12       1.0000    0.63020   0.54410   0.51230   Biso      1.000     C          -0.097185           
         C13       1.0000    0.85090   0.50940   0.23620   Biso      1.000     C          -0.103931           
         C14       1.0000    0.68360   0.59010   0.29850   Biso      1.000     C          -0.024087           
         C15       1.0000    0.77150   0.69230   0.33510   Biso      1.000     C          -0.103718           
         C16       1.0000    0.89720   0.70360   0.32200   Biso      1.000     C          -0.105146           
         C17       1.0000    0.93850   0.61260   0.27250   Biso      1.000     C          -0.020406           
         C18       1.0000    0.02070   0.43930   0.42290   Biso      1.000     C          -0.099147           
         C19       1.0000    0.07850   0.60590   0.53880   Biso      1.000     C          -0.096658           
         C20       1.0000    0.10020   0.54610   0.46220   Biso      1.000     C          -0.01952  
         C21       1.0000    0.20720   0.59740   0.42130   Biso      1.000     C          0.639992  
         C22       1.0000    0.07480   0.91980   0.49820   Biso      1.000     C          -0.096791           
         C23       1.0000    0.02620   0.08030   0.45540   Biso      1.000     C          -0.102024           
         C24       1.0000    0.72530   0.49840   0.25000   Biso      1.000     C          -0.107916           
         C25       1.0000    0.09950   0.99970   0.45250   Biso      1.000     C          -0.029621           
         C26       1.0000    0.55150   0.59570   0.56510   Biso      1.000     C          -0.006187           
         C27       1.0000    0.60670   0.69510   0.63550   Biso      1.000     C          0.629737  
         C28       1.0000    0.14910   0.49060   0.76380   Biso      1.000     C          -0.103931           
         C29       1.0000    0.27470   0.50160   0.75000   Biso      1.000     C          -0.107917           
         C30       1.0000    0.31640   0.40990   0.70150   Biso      1.000     C          -0.024086           
         C31       1.0000    0.22850   0.30770   0.66490   Biso      1.000     C          -0.103718           
         C32       1.0000    0.10280   0.29640   0.67800   Biso      1.000     C          -0.105146           
         C33       1.0000    0.06150   0.38740   0.72750   Biso      1.000     C          -0.020406           
         C34       1.0000    0.97930   0.56070   0.57710   Biso      1.000     C          -0.099147           
         C35       1.0000    0.92150   0.39410   0.46120   Biso      1.000     C          -0.096658           
         C36       1.0000    0.89980   0.45390   0.53780   Biso      1.000     C          -0.01952  
         C37       1.0000    0.79280   0.40260   0.57870   Biso      1.000     C          0.639992  
         C38       1.0000    0.42050   0.55220   0.55200   Biso      1.000     C          -0.093828           
         C39       1.0000    0.92520   0.08020   0.50180   Biso      1.000     C          -0.09679  
         C40       1.0000    0.90050   0.00030   0.54750   Biso      1.000     C          -0.029627           
         C41       1.0000    0.79620   0.00380   0.60170   Biso      1.000     C          0.687841  
         C42       1.0000    0.45630   0.01720   0.70200   Biso      1.000     C          0.687925  
         C43       1.0000    0.96800   0.80810   0.77870   Biso      1.000     C          0.674712  
         C44       1.0000    0.11170   0.96250   0.73460   Biso      1.000     C          -0.103158           
         C45       1.0000    0.22670   0.00940   0.71370   Biso      1.000     C          -0.100011           
         C46       1.0000    0.32940   0.95970   0.71990   Biso      1.000     C          -0.012328           
         C47       1.0000    0.31290   0.85740   0.74400   Biso      1.000     C          -0.101812           
         C48       1.0000    0.19550   0.80720   0.76070   Biso      1.000     C          -0.104069           
         C49       1.0000    0.09470   0.86030   0.75810   Biso      1.000     C          -0.022618           
         C50       1.0000    0.97380   0.91970   0.54460   Biso      1.000     C          -0.102018           
         C51       1.0000    0.20380   0.99620   0.39830   Biso      1.000     C          0.68784   
         C52       1.0000    0.45460   0.41860   0.68990   Biso      1.000     C          0.666595  
         C53       1.0000    0.03200   0.19190   0.22130   Biso      1.000     C          0.674712  
         C54       1.0000    0.61960   0.35450   0.84670   Biso      1.000     C          0.680155  
         C55       1.0000    0.54370   0.98280   0.29800   Biso      1.000     C          0.687925  
         C56       1.0000    0.40570   0.19170   0.11270   Biso      1.000     C          0.628821  
         C57       1.0000    0.47780   0.15570   0.97280   Biso      1.000     C          -0.091914           
         C58       1.0000    0.52730   0.19330   0.90880   Biso      1.000     C          -0.102089           
         C59       1.0000    0.57010   0.31160   0.91770   Biso      1.000     C          -0.020242           
         C60       1.0000    0.56450   0.38900   0.99200   Biso      1.000     C          -0.099827           
         C61       1.0000    0.51090   0.35170   0.05540   Biso      1.000     C          -0.109027           
         C62       1.0000    0.44850   0.40430   0.43490   Biso      1.000     C          -0.006188           
         C63       1.0000    0.57950   0.44780   0.44800   Biso      1.000     C          -0.093825           
         C64       1.0000    0.36980   0.45590   0.48770   Biso      1.000     C          -0.097183           
         C65       1.0000    0.39330   0.30490   0.36450   Biso      1.000     C          0.629737  
         C66       1.0000    0.90530   0.13970   0.24190   Biso      1.000     C          -0.022623           
         C67       1.0000    0.46540   0.23390   0.04530   Biso      1.000     C          -0.031967           
         C68       1.0000    0.88830   0.03750   0.26540   Biso      1.000     C          -0.103154           
         C69       1.0000    0.68710   0.14260   0.25600   Biso      1.000     C          -0.101812           
         C70       1.0000    0.67060   0.04030   0.28010   Biso      1.000     C          -0.012329           
         C71       1.0000    0.80450   0.19280   0.23930   Biso      1.000     C          -0.104066           
         C72       1.0000    0.77330   0.99060   0.28630   Biso      1.000     C          -0.10001  
         H1        1.0000    0.23550   0.07540   0.69500   Biso      1.000     H          0.118418  
         H2        1.0000    0.49470   0.59520   0.89570   Biso      1.000     H          0.11635   
         H3        1.0000    0.12310   0.55230   0.79750   Biso      1.000     H          0.121419  
         H4        1.0000    0.33200   0.57150   0.77360   Biso      1.000     H          0.118468  
         H5        1.0000    0.45240   0.07690   0.96740   Biso      1.000     H          0.122581  
         H6        1.0000    0.46780   0.85990   0.14030   Biso      1.000     H          0.116275  
         H7        1.0000    0.25450   0.24610   0.63110   Biso      1.000     H          0.12062   
         H8        1.0000    0.54760   0.92310   0.03260   Biso      1.000     H          0.122581  
         H9        1.0000    0.53220   0.14010   0.85970   Biso      1.000     H          0.116275  
         H10       1.0000    0.04520   0.22710   0.65340   Biso      1.000     H          0.112333  
         H11       1.0000    0.71700   0.57480   0.52060   Biso      1.000     H          0.115407  
         H12       1.0000    0.36800   0.58780   0.58630   Biso      1.000     H          0.120353  
         H13       1.0000    0.50530   0.40480   0.10430   Biso      1.000     H          0.11635   
         H14       1.0000    0.96560   0.60150   0.62890   Biso      1.000     H          0.11804   
         H15       1.0000    0.86880   0.32270   0.43490   Biso      1.000     H          0.122591  
         H16       1.0000    0.87450   0.13330   0.50230   Biso      1.000     H          0.120009  
         H17       1.0000    0.18410   0.73690   0.77390   Biso      1.000     H          0.116519  
         H18       1.0000    0.38110   0.82300   0.74880   Biso      1.000     H          0.111392  
         H19       1.0000    0.95540   0.86490   0.57400   Biso      1.000     H          0.118715  
         H20       1.0000    0.04490   0.99940   0.73310   Biso      1.000     H          0.113978  
         H21       1.0000    0.59730   0.46740   0.99940   Biso      1.000     H          0.118253  
         H22       1.0000    0.28300   0.42520   0.47940   Biso      1.000     H          0.115407  
         H23       1.0000    0.40270   0.53260   0.00060   Biso      1.000     H          0.118253  
         H24       1.0000    0.95480   0.77290   0.34660   Biso      1.000     H          0.112333  
         H25       1.0000    0.03440   0.39850   0.37110   Biso      1.000     H          0.11804   
         H26       1.0000    0.74550   0.75390   0.36890   Biso      1.000     H          0.12062   
         H27       1.0000    0.87690   0.44770   0.20250   Biso      1.000     H          0.121419  
         H28       1.0000    0.61890   0.17700   0.25120   Biso      1.000     H          0.111392  
         H29       1.0000    0.63200   0.41220   0.41370   Biso      1.000     H          0.120353  
         H30       1.0000    0.13120   0.67730   0.56510   Biso      1.000     H          0.122591  
         H31       1.0000    0.81590   0.26310   0.22610   Biso      1.000     H          0.116519  
         H32       1.0000    0.76450   0.92460   0.30500   Biso      1.000     H          0.118418  
         H33       1.0000    0.12550   0.86670   0.49770   Biso      1.000     H          0.120009  
         H34       1.0000    0.04460   0.13510   0.42600   Biso      1.000     H          0.118715  
         H35       1.0000    0.95510   0.00060   0.26690   Biso      1.000     H          0.113978  
         H36       1.0000    0.66800   0.42850   0.22640   Biso      1.000     H          0.118468  
         O1        1.0000    0.10380   0.12470   0.19600   Biso      1.000     O          -0.729415           
         O2        1.0000    0.15230   0.71730   0.29759   Biso      1.000     O          -0.681165           
         O3        1.0000    0.10680   0.53900   0.21106   Biso      1.000     O          -0.693373           
         O4        1.0000    0.20130   0.04920   0.34344   Biso      1.000     O          -0.697637           
         O5        1.0000    0.28660   0.94110   0.40957   Biso      1.000     O          -0.696794           
         O6        1.0000    0.76520   0.46040   0.64565   Biso      1.000     O          -0.748768           
         O7        1.0000    0.54220   0.91660   0.34426   Biso      1.000     O          -0.66494  
         O8        1.0000    0.45090   0.22370   0.34733   Biso      1.000     O          -0.60058  
         O9        1.0000    0.29020   0.29952   0.32193   Biso      1.000     O          -0.73472  
         O10       1.0000    0.61920   0.28120   0.78092   Biso      1.000     O          -0.692218           
         O11       1.0000    0.65710   0.46160   0.85889   Biso      1.000     O          -0.700648           
         O12       1.0000    0.39090   0.08760   0.11070   Biso      1.000     O          -0.629917           
         O13       1.0000    0.36780   0.26080   0.17037   Biso      1.000     O          -0.77209  
         O14       1.0000    0.05880   0.29950   0.22959   Biso      1.000     O          -0.679932           
         O15       1.0000    0.44580   0.99890   0.26339   Biso      1.000     O          -0.730572           
         O16       1.0000    0.51500   0.66810   0.35369   Biso      1.000     O          -0.703312           
         O17       1.0000    0.47000   0.48790   0.27347   Biso      1.000     O          -0.685702           
         O18       1.0000    0.53000   0.51210   0.72653   Biso      1.000     O          -0.685702           
         O19       1.0000    0.48500   0.33190   0.64631   Biso      1.000     O          -0.703312           
         O20       1.0000    0.89320   0.46100   0.78894   Biso      1.000     O          -0.693373           
         O21       1.0000    0.84770   0.28270   0.70241   Biso      1.000     O          -0.681165           
         O22       1.0000    0.71340   0.05890   0.59043   Biso      1.000     O          -0.696794           
         O23       1.0000    0.79870   0.95080   0.65656   Biso      1.000     O          -0.697637           
         O24       1.0000    0.89620   0.87530   0.80400   Biso      1.000     O          -0.729415           
         O25       1.0000    0.94120   0.70050   0.77041   Biso      1.000     O          -0.679932           
         O26       1.0000    0.45780   0.08340   0.65574   Biso      1.000     O          -0.66494  
         O27       1.0000    0.73440   0.29950   0.54463   Biso      1.000     O          -0.655992           
         O28       1.0000    0.55420   0.00110   0.73661   Biso      1.000     O          -0.730572           
         O29       1.0000    0.70980   0.70048   0.67807   Biso      1.000     O          -0.73472  
         O30       1.0000    0.38080   0.71880   0.21908   Biso      1.000     O          -0.692218           
         O31       1.0000    0.34290   0.53840   0.14111   Biso      1.000     O          -0.700648           
         O32       1.0000    0.60910   0.91240   0.88930   Biso      1.000     O          -0.629917           
         O33       1.0000    0.63220   0.73920   0.82963   Biso      1.000     O          -0.77209  
         O34       1.0000    0.23480   0.53960   0.35435   Biso      1.000     O          -0.748768           
         O35       1.0000    0.26560   0.70050   0.45537   Biso      1.000     O          -0.655992           
         O36       1.0000    0.54910   0.77630   0.65267   Biso      1.000     O          -0.60058  
         Tb1       1.0000    0.63248   0.22060   0.64153   Biso      1.000     Tb          2.131894  
         Tb2       1.0000    0.70173   0.90129   0.76229   Biso      1.000     Tb          2.073073  
         Tb3       1.0000    0.74577   0.57770   0.77334   Biso      1.000     Tb          2.221389  
         Tb4       1.0000    0.36752   0.77940   0.35847   Biso      1.000     Tb          2.131894  
         Tb5       1.0000    0.29827   0.09871   0.23771   Biso      1.000     Tb          2.073074  
         Tb6       1.0000    0.25423   0.42230   0.22666   Biso      1.000     Tb          2.221389 