
##########################################################################
#               Crystallographic Information Format file
#               Produced by PyCifRW module
#
#  This is a CIF file.  CIF has been adopted by the International
#  Union of Crystallography as the standard for data archiving and
#  transmission.
#
#  For information on this file format, follow the CIF links at
#  http://www.iucr.org
##########################################################################

data_image0

_cell_length_a                          10.247
_cell_length_b                          15.25
_cell_length_c                          20.946
_cell_angle_alpha                       90
_cell_angle_beta                        99.91
_cell_angle_gamma                       90
_symmetry_space_group_name_H-M          'P 1'
_symmetry_int_tables_number             1
loop_
  _symmetry_equiv_pos_as_xyz
         'x, y, z' 
loop_
  _atom_site_label
  _atom_site_occupancy
  _atom_site_fract_x
  _atom_site_fract_y
  _atom_site_fract_z
  _atom_site_thermal_displace_type
  _atom_site_B_iso_or_equiv
  _atom_site_type_symbol
  _atom_site_charge
         C1        1.0000    0.01830   0.30640   0.00260   Biso      1.000     C          -0.13511800000000002          
         C2        1.0000    0.38190   0.41140   0.80880   Biso      1.000     C          0.630151  
         C3        1.0000    0.88410   0.41960   0.94390   Biso      1.000     C          -0.159324           
         C4        1.0000    0.97920   0.35460   0.94540   Biso      1.000     C          -0.006053           
         C5        1.0000    0.03540   0.67470   0.94280   Biso      1.000     C          -0.049989           
         C6        1.0000    0.96460   0.32530   0.05720   Biso      1.000     C          -0.049983           
         C7        1.0000    0.86880   0.39210   0.05520   Biso      1.000     C          -0.17415799999999998          
         C8        1.0000    0.82870   0.43870   0.99760   Biso      1.000     C          0.155165  
         C9        1.0000    0.72310   0.51100   0.99630   Biso      1.000     C          -0.309802           
         C10       1.0000    0.51400   0.54780   0.80120   Biso      1.000     C          -0.134741           
         C11       1.0000    0.60990   0.60830   0.82870   Biso      1.000     C          -0.005964           
         C12       1.0000    0.67370   0.59750   0.89220   Biso      1.000     C          -0.178955           
         C13       1.0000    0.64600   0.52720   0.92930   Biso      1.000     C          0.15790099999999999           
         C14       1.0000    0.54960   0.46770   0.90170   Biso      1.000     C          -0.17888800000000002          
         C15       1.0000    0.48300   0.47830   0.83800   Biso      1.000     C          -0.012295           
         C16       1.0000    0.35140   0.18430   0.71050   Biso      1.000     C          0.635634  
         C17       1.0000    0.95570   0.83470   0.61220   Biso      1.000     C          0.59415   
         C18       1.0000    0.98850   0.77600   0.38130   Biso      1.000     C          0.639142  
         C19       1.0000    0.61810   0.91140   0.69120   Biso      1.000     C          0.630149  
         C20       1.0000    0.11590   0.91960   0.55610   Biso      1.000     C          -0.159325           
         C21       1.0000    0.02080   0.85460   0.55460   Biso      1.000     C          -0.006053           
         C22       1.0000    0.98170   0.80640   0.49740   Biso      1.000     C          -0.13512000000000002          
         C23       1.0000    0.03540   0.82530   0.44280   Biso      1.000     C          -0.049984           
         C24       1.0000    0.13120   0.89210   0.44480   Biso      1.000     C          -0.17415999999999998          
         C25       1.0000    0.01150   0.27600   0.11870   Biso      1.000     C          0.639146  
         C26       1.0000    0.17130   0.93870   0.50240   Biso      1.000     C          0.155164  
         C27       1.0000    0.04430   0.33470   0.88780   Biso      1.000     C          0.594151  
         C28       1.0000    0.48300   0.02170   0.33800   Biso      1.000     C          -0.012297           
         C29       1.0000    0.27690   0.48900   0.00370   Biso      1.000     C          -0.309802           
         C30       1.0000    0.48600   0.45220   0.19880   Biso      1.000     C          -0.13474  
         C31       1.0000    0.39010   0.39170   0.17130   Biso      1.000     C          -0.005964           
         C32       1.0000    0.32630   0.40250   0.10780   Biso      1.000     C          -0.178957           
         C33       1.0000    0.35400   0.47280   0.07070   Biso      1.000     C          0.157898  
         C34       1.0000    0.45040   0.53230   0.09830   Biso      1.000     C          -0.17888900000000002          
         C35       1.0000    0.51700   0.52170   0.16200   Biso      1.000     C          -0.012294           
         C36       1.0000    0.64860   0.81570   0.28950   Biso      1.000     C          0.6356310000000001  
         C37       1.0000    0.04430   0.16530   0.38780   Biso      1.000     C          0.594148  
         C38       1.0000    0.01150   0.22400   0.61870   Biso      1.000     C          0.63915   
         C39       1.0000    0.38190   0.08860   0.30880   Biso      1.000     C          0.63015   
         C40       1.0000    0.88410   0.08040   0.44390   Biso      1.000     C          -0.159321           
         C41       1.0000    0.97920   0.14540   0.44540   Biso      1.000     C          -0.006052           
         C42       1.0000    0.01830   0.19360   0.50260   Biso      1.000     C          -0.135121           
         C43       1.0000    0.96460   0.17470   0.55720   Biso      1.000     C          -0.049987000000000004         
         C44       1.0000    0.86880   0.10790   0.55520   Biso      1.000     C          -0.17415899999999998          
         C45       1.0000    0.82870   0.06130   0.49760   Biso      1.000     C          0.155166  
         C46       1.0000    0.72310   0.98900   0.49630   Biso      1.000     C          -0.309802           
         C47       1.0000    0.51400   0.95220   0.30120   Biso      1.000     C          -0.134736           
         C48       1.0000    0.60990   0.89170   0.32870   Biso      1.000     C          -0.005963           
         C49       1.0000    0.67370   0.90250   0.39220   Biso      1.000     C          -0.178956           
         C50       1.0000    0.64600   0.97280   0.42930   Biso      1.000     C          0.157898  
         C51       1.0000    0.54960   0.03230   0.40170   Biso      1.000     C          -0.17889000000000002          
         C52       1.0000    0.64860   0.68430   0.78950   Biso      1.000     C          0.635633  
         C53       1.0000    0.27690   0.01100   0.50370   Biso      1.000     C          -0.309802           
         C54       1.0000    0.48600   0.04780   0.69880   Biso      1.000     C          -0.134742           
         C55       1.0000    0.39010   0.10830   0.67130   Biso      1.000     C          -0.005965           
         C56       1.0000    0.35140   0.31570   0.21050   Biso      1.000     C          0.635633  
         C57       1.0000    0.95570   0.66530   0.11220   Biso      1.000     C          0.594147  
         C58       1.0000    0.98850   0.72400   0.88130   Biso      1.000     C          0.639145  
         C59       1.0000    0.61810   0.58860   0.19120   Biso      1.000     C          0.630149  
         C60       1.0000    0.11590   0.58040   0.05610   Biso      1.000     C          -0.159323           
         C61       1.0000    0.02080   0.64540   0.05460   Biso      1.000     C          -0.006052           
         C62       1.0000    0.98170   0.69360   0.99740   Biso      1.000     C          -0.135122           
         C63       1.0000    0.17130   0.56130   0.00240   Biso      1.000     C          0.155165  
         C64       1.0000    0.13120   0.60790   0.94480   Biso      1.000     C          -0.17416199999999998          
         C65       1.0000    0.32630   0.09750   0.60780   Biso      1.000     C          -0.178955           
         C66       1.0000    0.35400   0.02720   0.57070   Biso      1.000     C          0.15790099999999999           
         C67       1.0000    0.45040   0.96770   0.59830   Biso      1.000     C          -0.178886           
         C68       1.0000    0.51700   0.97830   0.66200   Biso      1.000     C          -0.012294           
         H1        1.0000    0.33790   0.50560   0.97510   Biso      1.000     H          0.134021  
         H2        1.0000    0.52920   0.42010   0.92600   Biso      1.000     H          0.129226  
         H3        1.0000    0.95400   0.81900   0.72900   Biso      1.000     H          0.388666  
         H4        1.0000    0.97820   0.77770   0.29890   Biso      1.000     H          0.41911099999999996           
         H5        1.0000    0.14280   0.95090   0.59420   Biso      1.000     H          0.125176  
         H6        1.0000    0.91960   0.76160   0.49630   Biso      1.000     H          0.129918  
         H7        1.0000    0.16740   0.90510   0.40810   Biso      1.000     H          0.133658  
         H8        1.0000    0.33790   0.99440   0.47510   Biso      1.000     H          0.134022  
         H9        1.0000    0.52850   0.05440   0.74150   Biso      1.000     H          0.131973  
         H10       1.0000    0.73660   0.63850   0.91030   Biso      1.000     H          0.12008800000000001           
         H11       1.0000    0.26340   0.13850   0.58970   Biso      1.000     H          0.12008699999999999           
         H12       1.0000    0.47080   0.92010   0.57400   Biso      1.000     H          0.129226  
         H13       1.0000    0.14280   0.54910   0.09420   Biso      1.000     H          0.12517899999999998           
         H14       1.0000    0.97820   0.72230   0.79890   Biso      1.000     H          0.41911099999999996           
         H15       1.0000    0.95400   0.68100   0.22900   Biso      1.000     H          0.388664  
         H16       1.0000    0.23380   0.06510   0.48720   Biso      1.000     H          0.138991  
         H17       1.0000    0.47150   0.55440   0.75850   Biso      1.000     H          0.131973  
         H18       1.0000    0.76620   0.56510   0.01280   Biso      1.000     H          0.138993  
         H19       1.0000    0.66210   0.49440   0.02490   Biso      1.000     H          0.134023  
         H20       1.0000    0.23380   0.43490   0.98720   Biso      1.000     H          0.13899   
         H21       1.0000    0.52850   0.44560   0.24150   Biso      1.000     H          0.131972  
         H22       1.0000    0.26340   0.36150   0.08970   Biso      1.000     H          0.12008599999999998           
         H23       1.0000    0.47080   0.57990   0.07400   Biso      1.000     H          0.129226  
         H24       1.0000    0.04600   0.18100   0.27100   Biso      1.000     H          0.388665  
         H25       1.0000    0.02180   0.22230   0.70110   Biso      1.000     H          0.419112  
         H26       1.0000    0.85720   0.04910   0.40580   Biso      1.000     H          0.12517899999999998           
         H27       1.0000    0.08040   0.23840   0.50370   Biso      1.000     H          0.129915  
         H28       1.0000    0.83260   0.09490   0.59190   Biso      1.000     H          0.133657  
         H29       1.0000    0.66210   0.00560   0.52490   Biso      1.000     H          0.134021  
         H30       1.0000    0.76620   0.93490   0.51280   Biso      1.000     H          0.138991  
         H31       1.0000    0.47150   0.94560   0.25850   Biso      1.000     H          0.131971  
         H32       1.0000    0.73660   0.86150   0.41030   Biso      1.000     H          0.12008699999999999           
         H33       1.0000    0.52920   0.07990   0.42600   Biso      1.000     H          0.129226  
         H34       1.0000    0.04600   0.31900   0.77100   Biso      1.000     H          0.38866799999999996           
         H35       1.0000    0.91960   0.73840   0.99630   Biso      1.000     H          0.129917  
         H36       1.0000    0.85720   0.45090   0.90580   Biso      1.000     H          0.125177  
         H37       1.0000    0.08040   0.26160   0.00370   Biso      1.000     H          0.129917  
         H38       1.0000    0.83260   0.40510   0.09190   Biso      1.000     H          0.13366   
         H39       1.0000    0.16740   0.59490   0.90810   Biso      1.000     H          0.133656  
         H40       1.0000    0.02180   0.27770   0.20110   Biso      1.000     H          0.419112  
         Ni1       1.0000    0.74673   0.73819   0.66873   Biso      1.000     Ni          0.965692  
         Ni2       1.0000    0.79705   0.64291   0.31426   Biso      1.000     Ni          0.958939  
         Ni3       1.0000    0.74673   0.76181   0.16873   Biso      1.000     Ni          0.965684  
         Ni4       1.0000    0.20295   0.14291   0.18574   Biso      1.000     Ni          0.958953  
         Ni5       1.0000    0.25327   0.26181   0.33127   Biso      1.000     Ni          0.965678  
         Ni6       1.0000    0.20295   0.35709   0.68574   Biso      1.000     Ni          0.958968  
         Ni7       1.0000    0.25327   0.23819   0.83127   Biso      1.000     Ni          0.965692  
         Ni8       1.0000    0.79705   0.85709   0.81426   Biso      1.000     Ni          0.958959  
         O1        1.0000    0.36440   0.15300   0.34310   Biso      1.000     O          -0.524342           
         O2        1.0000    0.99200   0.19010   0.67070   Biso      1.000     O          -0.453477           
         O3        1.0000    0.06940   0.29600   0.61370   Biso      1.000     O          -0.556743           
         O4        1.0000    0.14220   0.21510   0.39680   Biso      1.000     O          -0.5833699999999999           
         O5        1.0000    0.99230   0.13090   0.33440   Biso      1.000     O          -0.55176  
         O6        1.0000    0.67930   0.74720   0.32090   Biso      1.000     O          -0.538021           
         O7        1.0000    0.64740   0.82800   0.23010   Biso      1.000     O          -0.575318           
         O8        1.0000    0.00800   0.69010   0.82930   Biso      1.000     O          -0.453478           
         O9        1.0000    0.67040   0.57480   0.24980   Biso      1.000     O          -0.574176           
         O10       1.0000    0.63560   0.65300   0.15690   Biso      1.000     O          -0.524345           
         O11       1.0000    0.32960   0.07480   0.25020   Biso      1.000     O          -0.574176           
         O12       1.0000    0.93060   0.79600   0.88630   Biso      1.000     O          -0.556743           
         O13       1.0000    0.85780   0.71510   0.10320   Biso      1.000     O          -0.5833729999999999           
         O14       1.0000    0.00770   0.63090   0.16560   Biso      1.000     O          -0.551761           
         O15       1.0000    0.32070   0.24720   0.17910   Biso      1.000     O          -0.538021           
         O16       1.0000    0.11870   0.20770   0.25560   Biso      1.000     O          -0.88512  
         O17       1.0000    0.11870   0.29230   0.75560   Biso      1.000     O          -0.8851190000000001           
         O18       1.0000    0.99230   0.36910   0.83440   Biso      1.000     O          -0.551759           
         O19       1.0000    0.67930   0.75280   0.82090   Biso      1.000     O          -0.5380189999999999           
         O20       1.0000    0.67040   0.92520   0.74980   Biso      1.000     O          -0.574177           
         O21       1.0000    0.63560   0.84700   0.65690   Biso      1.000     O          -0.524341           
         O22       1.0000    0.00800   0.80990   0.32930   Biso      1.000     O          -0.45347600000000005          
         O23       1.0000    0.93060   0.70400   0.38630   Biso      1.000     O          -0.556743           
         O24       1.0000    0.85780   0.78490   0.60320   Biso      1.000     O          -0.5833689999999999           
         O25       1.0000    0.00770   0.86910   0.66560   Biso      1.000     O          -0.551761           
         O26       1.0000    0.32070   0.25280   0.67910   Biso      1.000     O          -0.5380159999999999           
         O27       1.0000    0.35260   0.17200   0.76990   Biso      1.000     O          -0.575314           
         O28       1.0000    0.88130   0.79230   0.74440   Biso      1.000     O          -0.88512  
         O29       1.0000    0.32960   0.42520   0.75020   Biso      1.000     O          -0.574175           
         O30       1.0000    0.36440   0.34700   0.84310   Biso      1.000     O          -0.5243399999999999           
         O31       1.0000    0.99200   0.30990   0.17070   Biso      1.000     O          -0.453475           
         O32       1.0000    0.06940   0.20400   0.11370   Biso      1.000     O          -0.5567439999999999           
         O33       1.0000    0.14220   0.28490   0.89680   Biso      1.000     O          -0.583368           
         O34       1.0000    0.35260   0.32800   0.26990   Biso      1.000     O          -0.5753149999999999           
         O35       1.0000    0.64740   0.67200   0.73010   Biso      1.000     O          -0.575317           
         O36       1.0000    0.88130   0.70770   0.24440   Biso      1.000     O          -0.885122 