
##########################################################################
#               Crystallographic Information Format file
#               Produced by PyCifRW module
#
#  This is a CIF file.  CIF has been adopted by the International
#  Union of Crystallography as the standard for data archiving and
#  transmission.
#
#  For information on this file format, follow the CIF links at
#  http://www.iucr.org
##########################################################################

data_image0

_cell_length_a                          8.1387
_cell_length_b                          18.4609
_cell_length_c                          18.6553
_cell_angle_alpha                       90
_cell_angle_beta                        90
_cell_angle_gamma                       90
_symmetry_space_group_name_H-M          'P 1'
_symmetry_int_tables_number             1
loop_
  _symmetry_equiv_pos_as_xyz
         'x, y, z' 
loop_
  _atom_site_label
  _atom_site_occupancy
  _atom_site_fract_x
  _atom_site_fract_y
  _atom_site_fract_z
  _atom_site_thermal_displace_type
  _atom_site_B_iso_or_equiv
  _atom_site_type_symbol
  _atom_site_charge
         C1        1.0000    0.89170   0.16990   0.33741   Biso      1.000     C          -0.171902           
         C2        1.0000    0.29890   0.21280   0.42153   Biso      1.000     C          0.008006000000000001          
         C3        1.0000    0.75020   0.08360   0.42020   Biso      1.000     C          0.61423   
         C4        1.0000    0.75440   0.35040   0.46800   Biso      1.000     C          0.592276  
         C5        1.0000    0.88910   0.29790   0.35860   Biso      1.000     C          -0.166384           
         C6        1.0000    0.93760   0.23940   0.31694   Biso      1.000     C          0.15314   
         C7        1.0000    0.79900   0.15900   0.39930   Biso      1.000     C          -0.015719999999999998         
         C8        1.0000    0.75420   0.21780   0.44150   Biso      1.000     C          -0.127331           
         C9        1.0000    0.79890   0.28720   0.42153   Biso      1.000     C          0.008225  
         C10       1.0000    0.75020   0.41640   0.07980   Biso      1.000     C          0.614223  
         C11       1.0000    0.75440   0.14960   0.03200   Biso      1.000     C          0.592279  
         C12       1.0000    0.88910   0.20210   0.14140   Biso      1.000     C          -0.166354           
         C13       1.0000    0.93760   0.26060   0.18306   Biso      1.000     C          0.153175  
         C14       1.0000    0.89170   0.33010   0.16259   Biso      1.000     C          -0.17187  
         C15       1.0000    0.79900   0.34100   0.10070   Biso      1.000     C          -0.015734           
         C16       1.0000    0.25420   0.28220   0.44150   Biso      1.000     C          -0.12769  
         C17       1.0000    0.75420   0.28220   0.05850   Biso      1.000     C          -0.12735  
         C18       1.0000    0.70110   0.78720   0.57847   Biso      1.000     C          0.008004  
         C19       1.0000    0.74580   0.71780   0.55850   Biso      1.000     C          -0.127693           
         C20       1.0000    0.70100   0.65900   0.60070   Biso      1.000     C          -0.013231999999999999         
         C21       1.0000    0.60830   0.66990   0.66259   Biso      1.000     C          -0.173224           
         C22       1.0000    0.56240   0.73940   0.68306   Biso      1.000     C          0.153196  
         C23       1.0000    0.61090   0.79790   0.64140   Biso      1.000     C          -0.167042           
         C24       1.0000    0.74560   0.85040   0.53200   Biso      1.000     C          0.592446  
         C25       1.0000    0.74980   0.58360   0.57980   Biso      1.000     C          0.6139220000000001  
         C26       1.0000    0.70110   0.71280   0.92153   Biso      1.000     C          0.007989  
         C27       1.0000    0.74580   0.78220   0.94150   Biso      1.000     C          -0.127711           
         C28       1.0000    0.70100   0.84100   0.89930   Biso      1.000     C          -0.01325  
         C29       1.0000    0.60830   0.83010   0.83741   Biso      1.000     C          -0.173182           
         C30       1.0000    0.56240   0.76060   0.81694   Biso      1.000     C          0.153232  
         C31       1.0000    0.61090   0.70210   0.85860   Biso      1.000     C          -0.167018           
         C32       1.0000    0.79890   0.21280   0.07847   Biso      1.000     C          0.008205  
         C33       1.0000    0.29900   0.34100   0.39930   Biso      1.000     C          -0.013231           
         C34       1.0000    0.39170   0.33010   0.33741   Biso      1.000     C          -0.173223           
         C35       1.0000    0.43760   0.26060   0.31694   Biso      1.000     C          0.153198  
         C36       1.0000    0.95980   0.75000   0.75000   Biso      1.000     C          -0.315782           
         C37       1.0000    0.54020   0.25000   0.25000   Biso      1.000     C          -0.315807           
         C38       1.0000    0.04020   0.25000   0.25000   Biso      1.000     C          -0.315781           
         C39       1.0000    0.45980   0.75000   0.75000   Biso      1.000     C          -0.315808           
         C40       1.0000    0.24980   0.91640   0.57980   Biso      1.000     C          0.61423   
         C41       1.0000    0.24560   0.64960   0.53200   Biso      1.000     C          0.592278  
         C42       1.0000    0.11090   0.70210   0.64140   Biso      1.000     C          -0.166383           
         C43       1.0000    0.06240   0.76060   0.68306   Biso      1.000     C          0.153142  
         C44       1.0000    0.10830   0.83010   0.66259   Biso      1.000     C          -0.1719   
         C45       1.0000    0.20100   0.84100   0.60070   Biso      1.000     C          -0.015718           
         C46       1.0000    0.24580   0.78220   0.55850   Biso      1.000     C          -0.12733  
         C47       1.0000    0.20110   0.71280   0.57847   Biso      1.000     C          0.008223999999999999          
         C48       1.0000    0.24980   0.58360   0.92020   Biso      1.000     C          0.614223  
         C49       1.0000    0.24560   0.85040   0.96800   Biso      1.000     C          0.592278  
         C50       1.0000    0.11090   0.79790   0.85860   Biso      1.000     C          -0.166356           
         C51       1.0000    0.06240   0.73940   0.81694   Biso      1.000     C          0.153174  
         C52       1.0000    0.10830   0.66990   0.83741   Biso      1.000     C          -0.17187  
         C53       1.0000    0.38910   0.20210   0.35860   Biso      1.000     C          -0.16703900000000002          
         C54       1.0000    0.25440   0.14960   0.46800   Biso      1.000     C          0.592446  
         C55       1.0000    0.25020   0.41640   0.42020   Biso      1.000     C          0.613925  
         C56       1.0000    0.29890   0.28720   0.07847   Biso      1.000     C          0.00799   
         C57       1.0000    0.25420   0.21780   0.05850   Biso      1.000     C          -0.12771  
         C58       1.0000    0.29900   0.15900   0.10070   Biso      1.000     C          -0.013252000000000002         
         C59       1.0000    0.74560   0.64960   0.96800   Biso      1.000     C          0.592431  
         C60       1.0000    0.39170   0.16990   0.16259   Biso      1.000     C          -0.173183           
         C61       1.0000    0.38910   0.29790   0.14140   Biso      1.000     C          -0.16702  
         C62       1.0000    0.25440   0.35040   0.03200   Biso      1.000     C          0.592432  
         C63       1.0000    0.25020   0.08360   0.07980   Biso      1.000     C          0.6139359999999999  
         C64       1.0000    0.20110   0.78720   0.92153   Biso      1.000     C          0.008205  
         C65       1.0000    0.24580   0.71780   0.94150   Biso      1.000     C          -0.127353           
         C66       1.0000    0.20100   0.65900   0.89930   Biso      1.000     C          -0.015733           
         C67       1.0000    0.43760   0.23940   0.18306   Biso      1.000     C          0.153231  
         C68       1.0000    0.74980   0.91640   0.92020   Biso      1.000     C          0.6139359999999999  
         Cu1       1.0000    0.79067   0.93076   0.41436   Biso      1.000     Cu          0.8394450000000001  
         Cu2       1.0000    0.29067   0.93076   0.08564   Biso      1.000     Cu          0.8475280000000001  
         Cu3       1.0000    0.50000   0.00000   0.50000   Biso      1.000     Cu          1.084963  
         Cu4       1.0000    0.50000   0.50000   0.00000   Biso      1.000     Cu          1.084958  
         Cu5       1.0000    0.00000   0.00000   0.00000   Biso      1.000     Cu          1.0797510000000001  
         Cu6       1.0000    0.29067   0.56924   0.41436   Biso      1.000     Cu          0.847413  
         Cu7       1.0000    0.00000   0.50000   0.50000   Biso      1.000     Cu          1.07971   
         Cu8       1.0000    0.20933   0.06924   0.58564   Biso      1.000     Cu          0.83945   
         Cu9       1.0000    0.70933   0.43076   0.58564   Biso      1.000     Cu          0.8473930000000001  
         Cu10      1.0000    0.70933   0.06924   0.91436   Biso      1.000     Cu          0.847532  
         Cu11      1.0000    0.79067   0.56924   0.08564   Biso      1.000     Cu          0.8396309999999999  
         Cu12      1.0000    0.20933   0.43076   0.91436   Biso      1.000     Cu          0.8395969999999999  
         H1        1.0000    0.92300   0.36960   0.19030   Biso      1.000     H          0.131406  
         H2        1.0000    0.58320   0.65540   0.84450   Biso      1.000     H          0.126371  
         H3        1.0000    0.69420   0.28960   0.01670   Biso      1.000     H          0.135942  
         H4        1.0000    0.99500   0.05400   0.87100   Biso      1.000     H          0.405804  
         H5        1.0000    0.38950   0.79190   0.74350   Biso      1.000     H          0.127436  
         H6        1.0000    0.57700   0.86960   0.80970   Biso      1.000     H          0.131421  
         H7        1.0000    0.80580   0.71040   0.51670   Biso      1.000     H          0.13603099999999999           
         H8        1.0000    0.99500   0.44600   0.62900   Biso      1.000     H          0.40573400000000004           
         H9        1.0000    0.38950   0.70810   0.75650   Biso      1.000     H          0.12743   
         H10       1.0000    0.58320   0.84460   0.65550   Biso      1.000     H          0.12636   
         H11       1.0000    0.57700   0.63040   0.69030   Biso      1.000     H          0.131388  
         H12       1.0000    0.91680   0.15540   0.15550   Biso      1.000     H          0.126595  
         H13       1.0000    0.49500   0.05400   0.62900   Biso      1.000     H          0.40417   
         H14       1.0000    0.80580   0.78960   0.98330   Biso      1.000     H          0.13603099999999999           
         H15       1.0000    0.11050   0.29190   0.25650   Biso      1.000     H          0.127564  
         H16       1.0000    0.88950   0.79190   0.75650   Biso      1.000     H          0.127563  
         H17       1.0000    0.69420   0.21040   0.48330   Biso      1.000     H          0.135945  
         H18       1.0000    0.50500   0.55400   0.12900   Biso      1.000     H          0.404262  
         H19       1.0000    0.08320   0.65540   0.65550   Biso      1.000     H          0.126578  
         H20       1.0000    0.07700   0.86960   0.69030   Biso      1.000     H          0.131383  
         H21       1.0000    0.49500   0.44600   0.87100   Biso      1.000     H          0.404256  
         H22       1.0000    0.88950   0.70810   0.74350   Biso      1.000     H          0.127566  
         H23       1.0000    0.08320   0.84460   0.84450   Biso      1.000     H          0.126595  
         H24       1.0000    0.07700   0.63040   0.80970   Biso      1.000     H          0.131409  
         H25       1.0000    0.30580   0.71040   0.98330   Biso      1.000     H          0.135942  
         H26       1.0000    0.00500   0.94600   0.12900   Biso      1.000     H          0.405803  
         H27       1.0000    0.61050   0.20810   0.25650   Biso      1.000     H          0.127436  
         H28       1.0000    0.41680   0.34460   0.15550   Biso      1.000     H          0.126368  
         H29       1.0000    0.30580   0.78960   0.51670   Biso      1.000     H          0.135945  
         H30       1.0000    0.19420   0.21040   0.01670   Biso      1.000     H          0.136032  
         H31       1.0000    0.42300   0.13040   0.19030   Biso      1.000     H          0.131419  
         H32       1.0000    0.91680   0.34460   0.34450   Biso      1.000     H          0.126574  
         H33       1.0000    0.50500   0.94600   0.37100   Biso      1.000     H          0.40416599999999997           
         H34       1.0000    0.19420   0.28960   0.48330   Biso      1.000     H          0.136034  
         H35       1.0000    0.11050   0.20810   0.24350   Biso      1.000     H          0.12756199999999998           
         H36       1.0000    0.41680   0.15540   0.34450   Biso      1.000     H          0.126361  
         H37       1.0000    0.61050   0.29190   0.24350   Biso      1.000     H          0.12743   
         H38       1.0000    0.00500   0.55400   0.37100   Biso      1.000     H          0.40574299999999996           
         H39       1.0000    0.42300   0.36960   0.30970   Biso      1.000     H          0.131388  
         H40       1.0000    0.92300   0.13040   0.30970   Biso      1.000     H          0.131381  
         O1        1.0000    0.15130   0.42224   0.47229   Biso      1.000     O          -0.5551050000000001           
         O2        1.0000    0.30780   0.03271   0.11523   Biso      1.000     O          -0.544901           
         O3        1.0000    0.30780   0.46729   0.38477   Biso      1.000     O          -0.544952           
         O4        1.0000    0.05330   0.55719   0.41685   Biso      1.000     O          -0.813351           
         O5        1.0000    0.24750   0.41257   0.05707   Biso      1.000     O          -0.597649           
         O6        1.0000    0.22730   0.16322   0.53457   Biso      1.000     O          -0.534275           
         O7        1.0000    0.22730   0.33678   0.96543   Biso      1.000     O          -0.5342180000000001           
         O8        1.0000    0.15130   0.07776   0.02771   Biso      1.000     O          -0.555089           
         O9        1.0000    0.19220   0.53271   0.88477   Biso      1.000     O          -0.54499  
         O10       1.0000    0.25250   0.91257   0.94293   Biso      1.000     O          -0.593594           
         O11       1.0000    0.27270   0.83678   0.03457   Biso      1.000     O          -0.537026           
         O12       1.0000    0.34870   0.57776   0.97229   Biso      1.000     O          -0.544218           
         O13       1.0000    0.44670   0.44281   0.91685   Biso      1.000     O          -0.814    
         O14       1.0000    0.25250   0.58743   0.55707   Biso      1.000     O          -0.593623           
         O15       1.0000    0.27270   0.66322   0.46543   Biso      1.000     O          -0.537048           
         O16       1.0000    0.24750   0.08743   0.44293   Biso      1.000     O          -0.5976859999999999           
         O17       1.0000    0.34870   0.92224   0.52771   Biso      1.000     O          -0.54425  
         O18       1.0000    0.05330   0.94281   0.08315   Biso      1.000     O          -0.813338           
         O19       1.0000    0.55330   0.94281   0.41685   Biso      1.000     O          -0.814051           
         O20       1.0000    0.84870   0.92224   0.97229   Biso      1.000     O          -0.555091           
         O21       1.0000    0.65130   0.07776   0.47229   Biso      1.000     O          -0.544248           
         O22       1.0000    0.19220   0.96729   0.61523   Biso      1.000     O          -0.545056           
         O23       1.0000    0.75250   0.91257   0.55707   Biso      1.000     O          -0.597688           
         O24       1.0000    0.77270   0.83678   0.46543   Biso      1.000     O          -0.534279           
         O25       1.0000    0.84870   0.57776   0.52771   Biso      1.000     O          -0.555113           
         O26       1.0000    0.69220   0.53271   0.61523   Biso      1.000     O          -0.54496  
         O27       1.0000    0.94670   0.44281   0.58315   Biso      1.000     O          -0.813359           
         O28       1.0000    0.75250   0.58743   0.94293   Biso      1.000     O          -0.597631           
         O29       1.0000    0.77270   0.66322   0.03457   Biso      1.000     O          -0.5342100000000001           
         O30       1.0000    0.69220   0.96729   0.88477   Biso      1.000     O          -0.544903           
         O31       1.0000    0.94670   0.05719   0.91685   Biso      1.000     O          -0.813339           
         O32       1.0000    0.74750   0.08743   0.05707   Biso      1.000     O          -0.593596           
         O33       1.0000    0.72730   0.16322   0.96543   Biso      1.000     O          -0.5370229999999999           
         O34       1.0000    0.65130   0.42224   0.02771   Biso      1.000     O          -0.5442100000000001           
         O35       1.0000    0.80780   0.46729   0.11523   Biso      1.000     O          -0.5449890000000001           
         O36       1.0000    0.55330   0.55719   0.08315   Biso      1.000     O          -0.813983           
         O37       1.0000    0.74750   0.41257   0.44293   Biso      1.000     O          -0.593647           
         O38       1.0000    0.72730   0.33678   0.53457   Biso      1.000     O          -0.5370590000000001           
         O39       1.0000    0.80780   0.03271   0.38477   Biso      1.000     O          -0.545054           
         O40       1.0000    0.44670   0.05719   0.58315   Biso      1.000     O          -0.814052 