
##########################################################################
#               Crystallographic Information Format file
#               Produced by PyCifRW module
#
#  This is a CIF file.  CIF has been adopted by the International
#  Union of Crystallography as the standard for data archiving and
#  transmission.
#
#  For information on this file format, follow the CIF links at
#  http://www.iucr.org
##########################################################################

data_image0

_cell_length_a                          8.613
_cell_length_b                          10.122
_cell_length_c                          11.095
_cell_angle_alpha                       65.205
_cell_angle_beta                        71.609
_cell_angle_gamma                       78.617
_symmetry_space_group_name_H-M          'P 1'
_symmetry_int_tables_number             1
loop_
  _symmetry_equiv_pos_as_xyz
         'x, y, z' 
loop_
  _atom_site_label
  _atom_site_occupancy
  _atom_site_fract_x
  _atom_site_fract_y
  _atom_site_fract_z
  _atom_site_thermal_displace_type
  _atom_site_B_iso_or_equiv
  _atom_site_type_symbol
  _atom_site_charge
         C1        1.0000    0.16440   0.46990   0.94900   Biso      1.000     C          -0.09641799999999999          
         C2        1.0000    0.17690   0.27050   0.17980   Biso      1.000     C          0.5797829999999999  
         C3        1.0000    0.08340   0.39130   0.08840   Biso      1.000     C          -0.012953000000000001         
         C4        1.0000    0.91960   0.42200   0.13810   Biso      1.000     C          -0.09929299999999999          
         C5        1.0000    0.44310   0.25500   0.45630   Biso      1.000     C          0.638951  
         C6        1.0000    0.47160   0.38120   0.48040   Biso      1.000     C          -0.030489           
         C7        1.0000    0.46780   0.36590   0.61200   Biso      1.000     C          -0.113453           
         C8        1.0000    0.50340   0.51560   0.36900   Biso      1.000     C          -0.091946           
         C9        1.0000    0.32590   0.95420   0.83900   Biso      1.000     C          0.587892  
         C10       1.0000    0.15660   0.97920   0.92130   Biso      1.000     C          -0.012126999999999999         
         C11       1.0000    0.02330   0.91010   0.93140   Biso      1.000     C          -0.109455           
         C12       1.0000    0.13250   0.06980   0.99160   Biso      1.000     C          -0.116093           
         C13       1.0000    0.82310   0.72950   0.82020   Biso      1.000     C          0.5797829999999999  
         C14       1.0000    0.91660   0.60870   0.91160   Biso      1.000     C          -0.012953999999999999         
         C15       1.0000    0.83560   0.53010   0.05100   Biso      1.000     C          -0.096414           
         C16       1.0000    0.08040   0.57800   0.86190   Biso      1.000     C          -0.099288           
         C17       1.0000    0.86750   0.93020   0.00840   Biso      1.000     C          -0.11608900000000001          
         C18       1.0000    0.84340   0.02080   0.07870   Biso      1.000     C          -0.012129000000000001         
         C19       1.0000    0.97670   0.08990   0.06860   Biso      1.000     C          -0.109454           
         C20       1.0000    0.49660   0.48440   0.63100   Biso      1.000     C          -0.091947           
         C21       1.0000    0.53220   0.63410   0.38800   Biso      1.000     C          -0.113454           
         C22       1.0000    0.52840   0.61880   0.51960   Biso      1.000     C          -0.030485           
         C23       1.0000    0.55690   0.74500   0.54370   Biso      1.000     C          0.638953  
         C24       1.0000    0.67410   0.04580   0.16100   Biso      1.000     C          0.587892  
         H1        1.0000    0.55380   0.72270   0.31400   Biso      1.000     H          0.123331  
         H2        1.0000    0.49480   0.47520   0.71840   Biso      1.000     H          0.129483  
         H3        1.0000    0.95840   0.15110   0.11580   Biso      1.000     H          0.103774  
         H4        1.0000    0.78100   0.88430   0.01320   Biso      1.000     H          0.126086  
         H5        1.0000    0.27580   0.44800   0.91610   Biso      1.000     H          0.119146  
         H6        1.0000    0.86580   0.37080   0.22920   Biso      1.000     H          0.11851300000000001           
         H7        1.0000    0.44620   0.27730   0.68600   Biso      1.000     H          0.123332  
         H8        1.0000    0.04160   0.84890   0.88420   Biso      1.000     H          0.103774  
         H9        1.0000    0.21900   0.11570   0.98680   Biso      1.000     H          0.126086  
         H10       1.0000    0.72420   0.55200   0.08390   Biso      1.000     H          0.119145  
         H11       1.0000    0.13420   0.62920   0.77080   Biso      1.000     H          0.11851300000000001           
         H12       1.0000    0.50520   0.52480   0.28160   Biso      1.000     H          0.129483  
         O1        1.0000    0.34460   0.87750   0.77030   Biso      1.000     O          -0.589674           
         O2        1.0000    0.32630   0.24490   0.12680   Biso      1.000     O          -0.567438           
         O3        1.0000    0.44740   0.01150   0.83560   Biso      1.000     O          -0.606651           
         O4        1.0000    0.37770   0.27970   0.36140   Biso      1.000     O          -0.572382           
         O5        1.0000    0.48160   0.12780   0.53160   Biso      1.000     O          -0.683735           
         O6        1.0000    0.10500   0.19680   0.30580   Biso      1.000     O          -0.646936           
         O7        1.0000    0.67370   0.75510   0.87320   Biso      1.000     O          -0.567438           
         O8        1.0000    0.65540   0.12250   0.22970   Biso      1.000     O          -0.589674           
         O9        1.0000    0.62230   0.72030   0.63860   Biso      1.000     O          -0.572382           
         O10       1.0000    0.51840   0.87220   0.46840   Biso      1.000     O          -0.683735           
         O11       1.0000    0.89500   0.80320   0.69420   Biso      1.000     O          -0.646936           
         O12       1.0000    0.55260   0.98850   0.16440   Biso      1.000     O          -0.606651           
         Y1        1.0000    0.63312   0.93672   0.66131   Biso      1.000     Y          1.822077  
         Y2        1.0000    0.36688   0.06328   0.33869   Biso      1.000     Y          1.822075 