
##########################################################################
#               Crystallographic Information Format file
#               Produced by PyCifRW module
#
#  This is a CIF file.  CIF has been adopted by the International
#  Union of Crystallography as the standard for data archiving and
#  transmission.
#
#  For information on this file format, follow the CIF links at
#  http://www.iucr.org
##########################################################################

data_image0

_cell_length_a                          16.1086
_cell_length_b                          16.1086
_cell_length_c                          27.9632
_cell_angle_alpha                       79.9799
_cell_angle_beta                        79.9799
_cell_angle_gamma                       63.0188
_symmetry_space_group_name_H-M          'P 1'
_symmetry_int_tables_number             1
loop_
  _symmetry_equiv_pos_as_xyz
         'x, y, z' 
loop_
  _atom_site_label
  _atom_site_occupancy
  _atom_site_fract_x
  _atom_site_fract_y
  _atom_site_fract_z
  _atom_site_thermal_displace_type
  _atom_site_B_iso_or_equiv
  _atom_site_type_symbol
  _atom_site_charge
         C1        1.0000    0.14021   0.64161   0.28860   Biso      1.000     C          -0.156366           
         C2        1.0000    0.57887   0.07607   0.92302   Biso      1.000     C          0.656245  
         C3        1.0000    0.24419   0.85699   0.88092   Biso      1.000     C          -0.084119           
         C4        1.0000    0.20042   0.83102   0.85253   Biso      1.000     C          -0.15725999999999998          
         C5        1.0000    0.22040   0.84580   0.80088   Biso      1.000     C          0.202513  
         C6        1.0000    0.28007   0.88547   0.78009   Biso      1.000     C          -0.16031800000000002          
         C7        1.0000    0.32207   0.91347   0.81035   Biso      1.000     C          -0.100759           
         C8        1.0000    0.29460   0.90780   0.86115   Biso      1.000     C          -0.004468           
         C9        1.0000    0.35471   0.92291   0.89029   Biso      1.000     C          0.576132  
         C10       1.0000    0.28503   0.26463   0.51605   Biso      1.000     C          -0.11411600000000001          
         C11       1.0000    0.37096   0.18916   0.52100   Biso      1.000     C          -0.144102           
         C12       1.0000    0.39785   0.11045   0.50140   Biso      1.000     C          0.215335  
         C13       1.0000    0.33540   0.10480   0.47140   Biso      1.000     C          -0.15071800000000002          
         C14       1.0000    0.24993   0.17933   0.46397   Biso      1.000     C          -0.086173           
         C15       1.0000    0.22326   0.25926   0.48747   Biso      1.000     C          -0.014816999999999999         
         C16       1.0000    0.61853   0.11293   0.87731   Biso      1.000     C          -0.023163           
         C17       1.0000    0.12983   0.33463   0.48101   Biso      1.000     C          0.642756  
         C18       1.0000    0.18773   0.69293   0.29507   Biso      1.000     C          0.217527  
         C19       1.0000    0.19979   0.70519   0.33887   Biso      1.000     C          -0.146452           
         C20       1.0000    0.16322   0.66702   0.37943   Biso      1.000     C          -0.087974           
         C21       1.0000    0.11293   0.61853   0.37731   Biso      1.000     C          -0.023159           
         C22       1.0000    0.07607   0.57887   0.42302   Biso      1.000     C          0.656245  
         C23       1.0000    0.85699   0.24419   0.38092   Biso      1.000     C          -0.08412  
         C24       1.0000    0.84580   0.22040   0.30088   Biso      1.000     C          0.202517  
         C25       1.0000    0.88547   0.28007   0.28009   Biso      1.000     C          -0.16031900000000002          
         C26       1.0000    0.91347   0.32207   0.31035   Biso      1.000     C          -0.100759           
         C27       1.0000    0.90780   0.29460   0.36115   Biso      1.000     C          -0.004468           
         C28       1.0000    0.92291   0.35471   0.39029   Biso      1.000     C          0.576132  
         C29       1.0000    0.73537   0.71497   0.98395   Biso      1.000     C          -0.11411600000000001          
         C30       1.0000    0.81084   0.62904   0.97900   Biso      1.000     C          -0.144102           
         C31       1.0000    0.88955   0.60215   0.99860   Biso      1.000     C          0.215335  
         C32       1.0000    0.09990   0.60390   0.33163   Biso      1.000     C          -0.091784           
         C33       1.0000    0.89520   0.66460   0.02860   Biso      1.000     C          -0.15071800000000002          
         C34       1.0000    0.66702   0.16322   0.87943   Biso      1.000     C          -0.087977           
         C35       1.0000    0.69293   0.18773   0.79507   Biso      1.000     C          0.217525  
         C36       1.0000    0.71497   0.73537   0.48395   Biso      1.000     C          -0.11411600000000001          
         C37       1.0000    0.62904   0.81084   0.47900   Biso      1.000     C          -0.144103           
         C38       1.0000    0.60215   0.88955   0.49860   Biso      1.000     C          0.215333  
         C39       1.0000    0.66460   0.89520   0.52860   Biso      1.000     C          -0.15071700000000002          
         C40       1.0000    0.75007   0.82067   0.53603   Biso      1.000     C          -0.086173           
         C41       1.0000    0.77674   0.74074   0.51253   Biso      1.000     C          -0.014816999999999999         
         C42       1.0000    0.87017   0.66537   0.51899   Biso      1.000     C          0.642756  
         C43       1.0000    0.90010   0.39610   0.66837   Biso      1.000     C          -0.091784           
         C44       1.0000    0.85979   0.35839   0.71140   Biso      1.000     C          -0.156366           
         C45       1.0000    0.81227   0.30707   0.70493   Biso      1.000     C          0.217527  
         C46       1.0000    0.80021   0.29481   0.66113   Biso      1.000     C          -0.146452           
         C47       1.0000    0.83678   0.33298   0.62057   Biso      1.000     C          -0.087974           
         C48       1.0000    0.88707   0.38147   0.62269   Biso      1.000     C          -0.023159           
         C49       1.0000    0.92393   0.42113   0.57698   Biso      1.000     C          0.656245  
         C50       1.0000    0.70519   0.19979   0.83887   Biso      1.000     C          -0.14644400000000002          
         C51       1.0000    0.14301   0.75581   0.61908   Biso      1.000     C          -0.08412  
         C52       1.0000    0.15420   0.77960   0.69912   Biso      1.000     C          0.202517  
         C53       1.0000    0.11453   0.71993   0.71991   Biso      1.000     C          -0.16031900000000002          
         C54       1.0000    0.08653   0.67793   0.68965   Biso      1.000     C          -0.100759           
         C55       1.0000    0.09220   0.70540   0.63885   Biso      1.000     C          -0.004468           
         C56       1.0000    0.07709   0.64529   0.60971   Biso      1.000     C          0.576132  
         C57       1.0000    0.26463   0.28503   0.01605   Biso      1.000     C          -0.11411600000000001          
         C58       1.0000    0.18916   0.37096   0.02100   Biso      1.000     C          -0.144103           
         C59       1.0000    0.11045   0.39785   0.00140   Biso      1.000     C          0.215333  
         C60       1.0000    0.10480   0.33540   0.97140   Biso      1.000     C          -0.15071700000000002          
         C61       1.0000    0.17933   0.24993   0.96397   Biso      1.000     C          -0.086173           
         C62       1.0000    0.25926   0.22326   0.98747   Biso      1.000     C          -0.014816999999999999         
         C63       1.0000    0.33463   0.12983   0.98101   Biso      1.000     C          0.6427579999999999  
         C64       1.0000    0.60390   0.09990   0.83163   Biso      1.000     C          -0.091783           
         C65       1.0000    0.64161   0.14021   0.78860   Biso      1.000     C          -0.156366           
         C66       1.0000    0.16898   0.79958   0.64747   Biso      1.000     C          -0.15725899999999998          
         C67       1.0000    0.82067   0.75007   0.03603   Biso      1.000     C          -0.086173           
         C68       1.0000    0.83102   0.20042   0.35253   Biso      1.000     C          -0.15725899999999998          
         C69       1.0000    0.66537   0.87017   0.01899   Biso      1.000     C          0.6427579999999999  
         C70       1.0000    0.74074   0.77674   0.01253   Biso      1.000     C          -0.014816999999999999         
         C71       1.0000    0.64529   0.07709   0.10971   Biso      1.000     C          0.576132  
         C72       1.0000    0.70540   0.09220   0.13885   Biso      1.000     C          -0.004469           
         C73       1.0000    0.67793   0.08653   0.18965   Biso      1.000     C          -0.100759           
         C74       1.0000    0.77960   0.15420   0.19912   Biso      1.000     C          0.202514  
         C75       1.0000    0.79958   0.16898   0.14747   Biso      1.000     C          -0.15727  
         C76       1.0000    0.75581   0.14301   0.11908   Biso      1.000     C          -0.08411  
         C77       1.0000    0.71993   0.11453   0.21991   Biso      1.000     C          -0.16031800000000002          
         C78       1.0000    0.38147   0.88707   0.12269   Biso      1.000     C          -0.023163           
         C79       1.0000    0.42113   0.92393   0.07698   Biso      1.000     C          0.656245  
         C80       1.0000    0.35839   0.85979   0.21140   Biso      1.000     C          -0.156366           
         C81       1.0000    0.30707   0.81227   0.20493   Biso      1.000     C          0.217525  
         C82       1.0000    0.39610   0.90010   0.16837   Biso      1.000     C          -0.091783           
         C83       1.0000    0.33298   0.83678   0.12057   Biso      1.000     C          -0.087977           
         C84       1.0000    0.29481   0.80021   0.16113   Biso      1.000     C          -0.14644400000000002          
         H1        1.0000    0.89380   0.29240   0.24630   Biso      1.000     H          0.126595  
         H2        1.0000    0.35350   0.05030   0.45720   Biso      1.000     H          0.125947  
         H3        1.0000    0.41200   0.19360   0.53890   Biso      1.000     H          0.123629  
         H4        1.0000    0.06630   0.57090   0.32930   Biso      1.000     H          0.133001  
         H5        1.0000    0.13500   0.63240   0.25760   Biso      1.000     H          0.131753  
         H6        1.0000    0.23240   0.73880   0.34170   Biso      1.000     H          0.12970399999999999           
         H7        1.0000    0.17290   0.67430   0.41000   Biso      1.000     H          0.12200799999999999           
         H8        1.0000    0.83990   0.24010   0.41450   Biso      1.000     H          0.126649  
         H9        1.0000    0.80500   0.15940   0.36630   Biso      1.000     H          0.13401   
         H10       1.0000    0.93500   0.36680   0.29720   Biso      1.000     H          0.12847999999999998           
         H11       1.0000    0.32570   0.82710   0.09000   Biso      1.000     H          0.12200799999999999           
         H12       1.0000    0.80640   0.58800   0.96110   Biso      1.000     H          0.123629  
         H13       1.0000    0.94970   0.64650   0.04280   Biso      1.000     H          0.125947  
         H14       1.0000    0.82330   0.78910   0.05610   Biso      1.000     H          0.138849  
         H15       1.0000    0.42910   0.93370   0.17070   Biso      1.000     H          0.133001  
         H16       1.0000    0.36760   0.86500   0.24240   Biso      1.000     H          0.131752  
         H17       1.0000    0.26120   0.76760   0.15830   Biso      1.000     H          0.12970299999999998           
         H18       1.0000    0.26780   0.31800   0.53110   Biso      1.000     H          0.099713  
         H19       1.0000    0.75990   0.16010   0.08550   Biso      1.000     H          0.126648  
         H20       1.0000    0.84060   0.19500   0.13370   Biso      1.000     H          0.134011  
         H21       1.0000    0.70760   0.10620   0.25370   Biso      1.000     H          0.126595  
         H22       1.0000    0.63320   0.06500   0.20280   Biso      1.000     H          0.12847999999999998           
         H23       1.0000    0.68200   0.73220   0.96890   Biso      1.000     H          0.099713  
         H24       1.0000    0.36680   0.93500   0.79720   Biso      1.000     H          0.12847999999999998           
         H25       1.0000    0.21090   0.17670   0.44390   Biso      1.000     H          0.138849  
         H26       1.0000    0.15940   0.80500   0.86630   Biso      1.000     H          0.13401   
         H27       1.0000    0.29240   0.89380   0.74630   Biso      1.000     H          0.126595  
         H28       1.0000    0.73220   0.68200   0.46890   Biso      1.000     H          0.099713  
         H29       1.0000    0.58800   0.80640   0.46110   Biso      1.000     H          0.123628  
         H30       1.0000    0.78910   0.82330   0.55610   Biso      1.000     H          0.138849  
         H31       1.0000    0.93370   0.42910   0.67070   Biso      1.000     H          0.133001  
         H32       1.0000    0.86500   0.36760   0.74240   Biso      1.000     H          0.131753  
         H33       1.0000    0.76760   0.26120   0.65830   Biso      1.000     H          0.12970399999999999           
         H34       1.0000    0.82710   0.32570   0.59000   Biso      1.000     H          0.12200799999999999           
         H35       1.0000    0.16010   0.75990   0.58550   Biso      1.000     H          0.126649  
         H36       1.0000    0.19500   0.84060   0.63370   Biso      1.000     H          0.13401   
         H37       1.0000    0.64650   0.94970   0.54280   Biso      1.000     H          0.125947  
         H38       1.0000    0.06500   0.63320   0.70280   Biso      1.000     H          0.12847999999999998           
         H39       1.0000    0.10620   0.70760   0.75370   Biso      1.000     H          0.126595  
         H40       1.0000    0.67430   0.17290   0.91000   Biso      1.000     H          0.12200799999999999           
         H41       1.0000    0.73880   0.23240   0.84170   Biso      1.000     H          0.12970299999999998           
         H42       1.0000    0.63240   0.13500   0.75760   Biso      1.000     H          0.131752  
         H43       1.0000    0.24010   0.83990   0.91450   Biso      1.000     H          0.126649  
         H44       1.0000    0.17670   0.21090   0.94390   Biso      1.000     H          0.138849  
         H45       1.0000    0.05030   0.35350   0.95720   Biso      1.000     H          0.125947  
         H46       1.0000    0.19360   0.41200   0.03890   Biso      1.000     H          0.123628  
         H47       1.0000    0.31800   0.26780   0.03110   Biso      1.000     H          0.099713  
         H48       1.0000    0.57090   0.06630   0.82930   Biso      1.000     H          0.133001  
         N1        1.0000    0.48462   0.04422   0.50498   Biso      1.000     N          -0.175625           
         N2        1.0000    0.22565   0.72405   0.25091   Biso      1.000     N          -0.19366  
         N3        1.0000    0.80899   0.17999   0.27480   Biso      1.000     N          -0.185748           
         N4        1.0000    0.95578   0.51538   0.99502   Biso      1.000     N          -0.175625           
         N5        1.0000    0.27595   0.77435   0.24909   Biso      1.000     N          -0.193651           
         N6        1.0000    0.04422   0.48462   0.00498   Biso      1.000     N          -0.175603           
         N7        1.0000    0.19101   0.82001   0.72520   Biso      1.000     N          -0.185748           
         N8        1.0000    0.17999   0.80899   0.77480   Biso      1.000     N          -0.18571300000000002          
         N9        1.0000    0.77435   0.27595   0.74909   Biso      1.000     N          -0.19366  
         N10       1.0000    0.51538   0.95578   0.49502   Biso      1.000     N          -0.175603           
         N11       1.0000    0.82001   0.19101   0.22520   Biso      1.000     N          -0.18571300000000002          
         N12       1.0000    0.72405   0.22565   0.75091   Biso      1.000     N          -0.193651           
         O1        1.0000    0.34342   0.89646   0.93686   Biso      1.000     O          -0.6850569999999999           
         O2        1.0000    0.40953   0.95787   0.87399   Biso      1.000     O          -0.629652           
         O3        1.0000    0.07934   0.32442   0.45381   Biso      1.000     O          -0.591536           
         O4        1.0000    0.59186   0.08504   0.96502   Biso      1.000     O          -0.661024           
         O5        1.0000    0.53095   0.03599   0.91393   Biso      1.000     O          -0.683658           
         O6        1.0000    0.10397   0.40301   0.50286   Biso      1.000     O          -0.7594069999999999           
         O7        1.0000    0.32442   0.07934   0.95381   Biso      1.000     O          -0.591539           
         O8        1.0000    0.96401   0.46905   0.58607   Biso      1.000     O          -0.683658           
         O9        1.0000    0.91496   0.40814   0.53498   Biso      1.000     O          -0.661024           
         O10       1.0000    0.10354   0.65658   0.56314   Biso      1.000     O          -0.6850569999999999           
         O11       1.0000    0.04213   0.59047   0.62601   Biso      1.000     O          -0.629652           
         O12       1.0000    0.40301   0.10397   0.00286   Biso      1.000     O          -0.7594069999999999           
         O13       1.0000    0.03599   0.53095   0.41393   Biso      1.000     O          -0.683658           
         O14       1.0000    0.92066   0.67558   0.54619   Biso      1.000     O          -0.591536           
         O15       1.0000    0.89646   0.34342   0.43686   Biso      1.000     O          -0.6850569999999999           
         O16       1.0000    0.95787   0.40953   0.37399   Biso      1.000     O          -0.629652           
         O17       1.0000    0.67558   0.92066   0.04619   Biso      1.000     O          -0.591539           
         O18       1.0000    0.59699   0.89603   0.99714   Biso      1.000     O          -0.7594069999999999           
         O19       1.0000    0.46905   0.96401   0.08607   Biso      1.000     O          -0.683658           
         O20       1.0000    0.40814   0.91496   0.03498   Biso      1.000     O          -0.661024           
         O21       1.0000    0.65658   0.10354   0.06314   Biso      1.000     O          -0.6850569999999999           
         O22       1.0000    0.59047   0.04213   0.12601   Biso      1.000     O          -0.6296510000000001           
         O23       1.0000    0.89603   0.59699   0.49714   Biso      1.000     O          -0.7594069999999999           
         O24       1.0000    0.08504   0.59186   0.46502   Biso      1.000     O          -0.661024           
         Sm1       1.0000    0.06657   0.53125   0.54610   Biso      1.000     Sm          2.057074  
         Sm2       1.0000    0.46875   0.93343   0.95390   Biso      1.000     Sm          2.057074  
         Sm3       1.0000    0.93343   0.46875   0.45390   Biso      1.000     Sm          2.057074  
         Sm4       1.0000    0.53125   0.06657   0.04610   Biso      1.000     Sm          2.057074 