
##########################################################################
#               Crystallographic Information Format file
#               Produced by PyCifRW module
#
#  This is a CIF file.  CIF has been adopted by the International
#  Union of Crystallography as the standard for data archiving and
#  transmission.
#
#  For information on this file format, follow the CIF links at
#  http://www.iucr.org
##########################################################################

data_image0

_cell_length_a                          16.1035
_cell_length_b                          16.1035
_cell_length_c                          28.128
_cell_angle_alpha                       79.3908
_cell_angle_beta                        79.3908
_cell_angle_gamma                       63.1772
_symmetry_space_group_name_H-M          'P 1'
_symmetry_int_tables_number             1
loop_
  _symmetry_equiv_pos_as_xyz
         'x, y, z' 
loop_
  _atom_site_label
  _atom_site_occupancy
  _atom_site_fract_x
  _atom_site_fract_y
  _atom_site_fract_z
  _atom_site_thermal_displace_type
  _atom_site_B_iso_or_equiv
  _atom_site_type_symbol
  _atom_site_charge
         C1        1.0000    0.13994   0.64194   0.28869   Biso      1.000     C          -0.154538           
         C2        1.0000    0.38140   0.88680   0.12306   Biso      1.000     C          -0.029120999999999998         
         C3        1.0000    0.42105   0.92385   0.07698   Biso      1.000     C          0.638221  
         C4        1.0000    0.75586   0.14346   0.11917   Biso      1.000     C          -0.086006           
         C5        1.0000    0.80038   0.16858   0.14755   Biso      1.000     C          -0.153361           
         C6        1.0000    0.78000   0.15460   0.19905   Biso      1.000     C          0.205065  
         C7        1.0000    0.71977   0.11437   0.21978   Biso      1.000     C          -0.15923199999999998          
         C8        1.0000    0.67819   0.08659   0.18993   Biso      1.000     C          -0.103052           
         C9        1.0000    0.70470   0.09290   0.13889   Biso      1.000     C          -0.009014           
         C10       1.0000    0.64537   0.07657   0.10996   Biso      1.000     C          0.579074  
         C11       1.0000    0.18724   0.69244   0.29527   Biso      1.000     C          0.21563600000000002           
         C12       1.0000    0.10117   0.60377   0.33147   Biso      1.000     C          -0.08981  
         C13       1.0000    0.12930   0.33510   0.48088   Biso      1.000     C          0.631853  
         C14       1.0000    0.22268   0.25908   0.48744   Biso      1.000     C          -0.018611000000000003         
         C15       1.0000    0.25028   0.17888   0.46397   Biso      1.000     C          -0.08734299999999999          
         C16       1.0000    0.33541   0.10521   0.47146   Biso      1.000     C          -0.145544           
         C17       1.0000    0.39782   0.11042   0.50089   Biso      1.000     C          0.220306  
         C18       1.0000    0.37072   0.18872   0.52099   Biso      1.000     C          -0.143696           
         C19       1.0000    0.33281   0.83661   0.12041   Biso      1.000     C          -0.087646           
         C20       1.0000    0.28498   0.26438   0.51621   Biso      1.000     C          -0.119301           
         C21       1.0000    0.29532   0.79932   0.16129   Biso      1.000     C          -0.146992           
         C22       1.0000    0.35806   0.86006   0.21131   Biso      1.000     C          -0.15454  
         C23       1.0000    0.11320   0.61860   0.37694   Biso      1.000     C          -0.02912  
         C24       1.0000    0.07615   0.57895   0.42302   Biso      1.000     C          0.638221  
         C25       1.0000    0.85654   0.24414   0.38083   Biso      1.000     C          -0.086007           
         C26       1.0000    0.83142   0.19962   0.35245   Biso      1.000     C          -0.15336  
         C27       1.0000    0.84540   0.22000   0.30095   Biso      1.000     C          0.20506799999999997           
         C28       1.0000    0.88563   0.28023   0.28022   Biso      1.000     C          -0.15923299999999999          
         C29       1.0000    0.91341   0.32181   0.31007   Biso      1.000     C          -0.103052           
         C30       1.0000    0.90710   0.29530   0.36111   Biso      1.000     C          -0.009014           
         C31       1.0000    0.92343   0.35463   0.39004   Biso      1.000     C          0.579074  
         C32       1.0000    0.73562   0.71502   0.98379   Biso      1.000     C          -0.119298           
         C33       1.0000    0.81128   0.62928   0.97901   Biso      1.000     C          -0.14372100000000002          
         C34       1.0000    0.88958   0.60218   0.99911   Biso      1.000     C          0.220331  
         C35       1.0000    0.89479   0.66459   0.02854   Biso      1.000     C          -0.14555  
         C36       1.0000    0.82112   0.74972   0.03603   Biso      1.000     C          -0.087339           
         C37       1.0000    0.74092   0.77732   0.01256   Biso      1.000     C          -0.018611000000000003         
         C38       1.0000    0.66490   0.87070   0.01912   Biso      1.000     C          0.631853  
         C39       1.0000    0.39623   0.89883   0.16853   Biso      1.000     C          -0.08981  
         C40       1.0000    0.30756   0.81276   0.20473   Biso      1.000     C          0.215664  
         C41       1.0000    0.35463   0.92343   0.89004   Biso      1.000     C          0.579074  
         C42       1.0000    0.29530   0.90710   0.86111   Biso      1.000     C          -0.009015           
         C43       1.0000    0.32181   0.91341   0.81007   Biso      1.000     C          -0.103052           
         C44       1.0000    0.15460   0.78000   0.69905   Biso      1.000     C          0.205065  
         C45       1.0000    0.16858   0.80038   0.64755   Biso      1.000     C          -0.153365           
         C46       1.0000    0.14346   0.75586   0.61917   Biso      1.000     C          -0.086002           
         C47       1.0000    0.92385   0.42105   0.57698   Biso      1.000     C          0.638221  
         C48       1.0000    0.88680   0.38140   0.62306   Biso      1.000     C          -0.029120999999999998         
         C49       1.0000    0.83661   0.33281   0.62041   Biso      1.000     C          -0.087646           
         C50       1.0000    0.79932   0.29532   0.66129   Biso      1.000     C          -0.146993           
         C51       1.0000    0.81276   0.30756   0.70473   Biso      1.000     C          0.215664  
         C52       1.0000    0.86006   0.35806   0.71131   Biso      1.000     C          -0.15454  
         C53       1.0000    0.89883   0.39623   0.66853   Biso      1.000     C          -0.08981  
         C54       1.0000    0.87070   0.66490   0.51912   Biso      1.000     C          0.631853  
         C55       1.0000    0.77732   0.74092   0.51256   Biso      1.000     C          -0.018611000000000003         
         C56       1.0000    0.74972   0.82112   0.53603   Biso      1.000     C          -0.08734299999999999          
         C57       1.0000    0.66459   0.89479   0.52854   Biso      1.000     C          -0.145544           
         C58       1.0000    0.60218   0.88958   0.49911   Biso      1.000     C          0.220308  
         C59       1.0000    0.62928   0.81128   0.47901   Biso      1.000     C          -0.14369500000000002          
         C60       1.0000    0.71502   0.73562   0.48379   Biso      1.000     C          -0.119301           
         C61       1.0000    0.11437   0.71977   0.71978   Biso      1.000     C          -0.15923199999999998          
         C62       1.0000    0.08659   0.67819   0.68993   Biso      1.000     C          -0.103052           
         C63       1.0000    0.09290   0.70470   0.63889   Biso      1.000     C          -0.009015           
         C64       1.0000    0.07657   0.64537   0.60996   Biso      1.000     C          0.579074  
         C65       1.0000    0.28023   0.88563   0.78022   Biso      1.000     C          -0.159234           
         C66       1.0000    0.22000   0.84540   0.80095   Biso      1.000     C          0.20506999999999997           
         C67       1.0000    0.19962   0.83142   0.85245   Biso      1.000     C          -0.153365           
         C68       1.0000    0.24414   0.85654   0.88083   Biso      1.000     C          -0.086002           
         C69       1.0000    0.57895   0.07615   0.92302   Biso      1.000     C          0.638221  
         C70       1.0000    0.61860   0.11320   0.87694   Biso      1.000     C          -0.029120999999999998         
         C71       1.0000    0.66719   0.16339   0.87959   Biso      1.000     C          -0.087646           
         C72       1.0000    0.70468   0.20068   0.83871   Biso      1.000     C          -0.146992           
         C73       1.0000    0.16339   0.66719   0.37959   Biso      1.000     C          -0.08765  
         C74       1.0000    0.69244   0.18724   0.79527   Biso      1.000     C          0.215662  
         C75       1.0000    0.60377   0.10117   0.83147   Biso      1.000     C          -0.08981  
         C76       1.0000    0.33510   0.12930   0.98088   Biso      1.000     C          0.631853  
         C77       1.0000    0.25908   0.22268   0.98744   Biso      1.000     C          -0.018611000000000003         
         C78       1.0000    0.17888   0.25028   0.96397   Biso      1.000     C          -0.08734299999999999          
         C79       1.0000    0.10521   0.33541   0.97146   Biso      1.000     C          -0.145544           
         C80       1.0000    0.11042   0.39782   0.00089   Biso      1.000     C          0.220308  
         C81       1.0000    0.18872   0.37072   0.02099   Biso      1.000     C          -0.14369500000000002          
         C82       1.0000    0.26438   0.28498   0.01621   Biso      1.000     C          -0.119301           
         C83       1.0000    0.64194   0.13994   0.78869   Biso      1.000     C          -0.154541           
         C84       1.0000    0.20068   0.70468   0.33871   Biso      1.000     C          -0.146963           
         Ce1       1.0000    0.53122   0.06662   0.04610   Biso      1.000     Ce          2.004747  
         Ce2       1.0000    0.93338   0.46878   0.45390   Biso      1.000     Ce          2.004747  
         Ce3       1.0000    0.46878   0.93338   0.95390   Biso      1.000     Ce          2.004747  
         Ce4       1.0000    0.06662   0.53122   0.54610   Biso      1.000     Ce          2.004747  
         H1        1.0000    0.32530   0.82770   0.09000   Biso      1.000     H          0.123643  
         H2        1.0000    0.06860   0.56960   0.32950   Biso      1.000     H          0.131154  
         H3        1.0000    0.13400   0.63380   0.25780   Biso      1.000     H          0.134506  
         H4        1.0000    0.23430   0.73770   0.34090   Biso      1.000     H          0.12953900000000002           
         H5        1.0000    0.17230   0.67470   0.41000   Biso      1.000     H          0.123643  
         H6        1.0000    0.83890   0.23970   0.41430   Biso      1.000     H          0.12441400000000001           
         H7        1.0000    0.80620   0.15780   0.36650   Biso      1.000     H          0.131899  
         H8        1.0000    0.89430   0.29310   0.24650   Biso      1.000     H          0.126361  
         H9        1.0000    0.93560   0.36620   0.29660   Biso      1.000     H          0.12490899999999999           
         H10       1.0000    0.80750   0.58850   0.96090   Biso      1.000     H          0.123642  
         H11       1.0000    0.82390   0.78830   0.05600   Biso      1.000     H          0.139101  
         H12       1.0000    0.21170   0.17610   0.44400   Biso      1.000     H          0.139101  
         H13       1.0000    0.43040   0.93140   0.17050   Biso      1.000     H          0.131154  
         H14       1.0000    0.36620   0.86600   0.24220   Biso      1.000     H          0.134507  
         H15       1.0000    0.26230   0.76570   0.15910   Biso      1.000     H          0.12954100000000002           
         H16       1.0000    0.73220   0.68240   0.46880   Biso      1.000     H          0.103902  
         H17       1.0000    0.76030   0.16110   0.08570   Biso      1.000     H          0.12441400000000001           
         H18       1.0000    0.84220   0.19380   0.13350   Biso      1.000     H          0.131899  
         H19       1.0000    0.70690   0.10570   0.25350   Biso      1.000     H          0.126361  
         H20       1.0000    0.63380   0.06440   0.20340   Biso      1.000     H          0.12490799999999999           
         H21       1.0000    0.94920   0.64640   0.04260   Biso      1.000     H          0.123135  
         H22       1.0000    0.35360   0.05080   0.45740   Biso      1.000     H          0.123134  
         H23       1.0000    0.68240   0.73220   0.96880   Biso      1.000     H          0.103902  
         H24       1.0000    0.26780   0.31760   0.53120   Biso      1.000     H          0.103902  
         H25       1.0000    0.58850   0.80750   0.46090   Biso      1.000     H          0.12364000000000001           
         H26       1.0000    0.41150   0.19250   0.53910   Biso      1.000     H          0.12364000000000001           
         H27       1.0000    0.78830   0.82390   0.55600   Biso      1.000     H          0.139101  
         H28       1.0000    0.93140   0.43040   0.67050   Biso      1.000     H          0.131154  
         H29       1.0000    0.86600   0.36620   0.74220   Biso      1.000     H          0.134507  
         H30       1.0000    0.76570   0.26230   0.65910   Biso      1.000     H          0.12954100000000002           
         H31       1.0000    0.82770   0.32530   0.59000   Biso      1.000     H          0.123643  
         H32       1.0000    0.16110   0.76030   0.58570   Biso      1.000     H          0.12441300000000001           
         H33       1.0000    0.19380   0.84220   0.63350   Biso      1.000     H          0.131899  
         H34       1.0000    0.10570   0.70690   0.75350   Biso      1.000     H          0.126361  
         H35       1.0000    0.06440   0.63380   0.70340   Biso      1.000     H          0.12490799999999999           
         H36       1.0000    0.31760   0.26780   0.03120   Biso      1.000     H          0.103902  
         H37       1.0000    0.64640   0.94920   0.54260   Biso      1.000     H          0.123134  
         H38       1.0000    0.05080   0.35360   0.95740   Biso      1.000     H          0.123134  
         H39       1.0000    0.36620   0.93560   0.79660   Biso      1.000     H          0.12490799999999999           
         H40       1.0000    0.29310   0.89430   0.74650   Biso      1.000     H          0.126361  
         H41       1.0000    0.23970   0.83890   0.91430   Biso      1.000     H          0.12441300000000001           
         H42       1.0000    0.67470   0.17230   0.91000   Biso      1.000     H          0.123643  
         H43       1.0000    0.15780   0.80620   0.86650   Biso      1.000     H          0.131899  
         H44       1.0000    0.63380   0.13400   0.75780   Biso      1.000     H          0.134506  
         H45       1.0000    0.56960   0.06860   0.82950   Biso      1.000     H          0.131154  
         H46       1.0000    0.17610   0.21170   0.94400   Biso      1.000     H          0.139101  
         H47       1.0000    0.73770   0.23430   0.84090   Biso      1.000     H          0.12954200000000002           
         H48       1.0000    0.19250   0.41150   0.03910   Biso      1.000     H          0.12364000000000001           
         N1        1.0000    0.17997   0.80957   0.77491   Biso      1.000     N          -0.191565           
         N2        1.0000    0.51536   0.95558   0.49474   Biso      1.000     N          -0.181757           
         N3        1.0000    0.77396   0.27596   0.74918   Biso      1.000     N          -0.191956           
         N4        1.0000    0.19043   0.82003   0.72509   Biso      1.000     N          -0.191538           
         N5        1.0000    0.04442   0.48464   0.00526   Biso      1.000     N          -0.181756           
         N6        1.0000    0.72404   0.22604   0.75082   Biso      1.000     N          -0.191941           
         N7        1.0000    0.48464   0.04442   0.50526   Biso      1.000     N          -0.181739           
         N8        1.0000    0.80957   0.17997   0.27491   Biso      1.000     N          -0.191565           
         N9        1.0000    0.95558   0.51536   0.99474   Biso      1.000     N          -0.181741           
         N10       1.0000    0.27596   0.77396   0.24918   Biso      1.000     N          -0.191957           
         N11       1.0000    0.82003   0.19043   0.22509   Biso      1.000     N          -0.191538           
         N12       1.0000    0.22604   0.72404   0.25082   Biso      1.000     N          -0.191939           
         O1        1.0000    0.40932   0.95824   0.87397   Biso      1.000     O          -0.614789           
         O2        1.0000    0.96352   0.46928   0.58620   Biso      1.000     O          -0.6622   
         O3        1.0000    0.91535   0.40755   0.53519   Biso      1.000     O          -0.63913  
         O4        1.0000    0.10362   0.65646   0.56344   Biso      1.000     O          -0.680713           
         O5        1.0000    0.04176   0.59068   0.62603   Biso      1.000     O          -0.614789           
         O6        1.0000    0.32504   0.07936   0.95394   Biso      1.000     O          -0.582154           
         O7        1.0000    0.40294   0.10350   0.00286   Biso      1.000     O          -0.733632           
         O8        1.0000    0.53072   0.03648   0.91380   Biso      1.000     O          -0.6622   
         O9        1.0000    0.59245   0.08465   0.96481   Biso      1.000     O          -0.63913  
         O10       1.0000    0.34354   0.89638   0.93656   Biso      1.000     O          -0.680713           
         O11       1.0000    0.07936   0.32504   0.45394   Biso      1.000     O          -0.582154           
         O12       1.0000    0.89650   0.59706   0.49714   Biso      1.000     O          -0.733632           
         O13       1.0000    0.03648   0.53072   0.41380   Biso      1.000     O          -0.6622   
         O14       1.0000    0.08465   0.59245   0.46481   Biso      1.000     O          -0.63913  
         O15       1.0000    0.89638   0.34354   0.43656   Biso      1.000     O          -0.680713           
         O16       1.0000    0.95824   0.40932   0.37397   Biso      1.000     O          -0.614789           
         O17       1.0000    0.67496   0.92064   0.04606   Biso      1.000     O          -0.582154           
         O18       1.0000    0.59706   0.89650   0.99714   Biso      1.000     O          -0.733633           
         O19       1.0000    0.46928   0.96352   0.08620   Biso      1.000     O          -0.6622   
         O20       1.0000    0.40755   0.91535   0.03519   Biso      1.000     O          -0.63913  
         O21       1.0000    0.65646   0.10362   0.06344   Biso      1.000     O          -0.680713           
         O22       1.0000    0.59068   0.04176   0.12603   Biso      1.000     O          -0.614789           
         O23       1.0000    0.10350   0.40294   0.50286   Biso      1.000     O          -0.733632           
         O24       1.0000    0.92064   0.67496   0.54606   Biso      1.000     O          -0.582154 