
##########################################################################
#               Crystallographic Information Format file
#               Produced by PyCifRW module
#
#  This is a CIF file.  CIF has been adopted by the International
#  Union of Crystallography as the standard for data archiving and
#  transmission.
#
#  For information on this file format, follow the CIF links at
#  http://www.iucr.org
##########################################################################

data_image0

_cell_length_a                          8.522
_cell_length_b                          10.154
_cell_length_c                          11.067
_cell_angle_alpha                       64.726
_cell_angle_beta                        71.738
_cell_angle_gamma                       79.581
_symmetry_space_group_name_H-M          'P 1'
_symmetry_int_tables_number             1
loop_
  _symmetry_equiv_pos_as_xyz
         'x, y, z' 
loop_
  _atom_site_label
  _atom_site_occupancy
  _atom_site_fract_x
  _atom_site_fract_y
  _atom_site_fract_z
  _atom_site_thermal_displace_type
  _atom_site_B_iso_or_equiv
  _atom_site_type_symbol
  _atom_site_charge
         C1        1.0000    0.16310   0.46390   0.95050   Biso      1.000     C          -0.097083           
         C2        1.0000    0.86810   0.93010   0.00970   Biso      1.000     C          -0.111099           
         C3        1.0000    0.97670   0.08860   0.07140   Biso      1.000     C          -0.111175           
         C4        1.0000    0.84450   0.01990   0.08010   Biso      1.000     C          -0.008622           
         C5        1.0000    0.67520   0.04190   0.16610   Biso      1.000     C          0.600997  
         C6        1.0000    0.49380   0.48310   0.63140   Biso      1.000     C          -0.089749           
         C7        1.0000    0.53820   0.63270   0.38950   Biso      1.000     C          -0.117185           
         C8        1.0000    0.53030   0.61620   0.52170   Biso      1.000     C          -0.022524000000000002         
         C9        1.0000    0.56370   0.74020   0.54890   Biso      1.000     C          0.65041   
         C10       1.0000    0.91920   0.42650   0.13800   Biso      1.000     C          -0.092824           
         C11       1.0000    0.43630   0.25980   0.45110   Biso      1.000     C          0.650409  
         C12       1.0000    0.46970   0.38380   0.47830   Biso      1.000     C          -0.022534000000000002         
         C13       1.0000    0.46180   0.36730   0.61050   Biso      1.000     C          -0.117171           
         C14       1.0000    0.50620   0.51690   0.36860   Biso      1.000     C          -0.08973500000000001          
         C15       1.0000    0.32480   0.95810   0.83390   Biso      1.000     C          0.6009979999999999  
         C16       1.0000    0.15550   0.98010   0.91990   Biso      1.000     C          -0.008620000000000001         
         C17       1.0000    0.02330   0.91140   0.92860   Biso      1.000     C          -0.111177           
         C18       1.0000    0.13190   0.06990   0.99030   Biso      1.000     C          -0.111101           
         C19       1.0000    0.82490   0.73100   0.81980   Biso      1.000     C          0.604359  
         C20       1.0000    0.91740   0.61100   0.91090   Biso      1.000     C          -0.005686999999999999         
         C21       1.0000    0.83690   0.53610   0.04950   Biso      1.000     C          -0.097076           
         C22       1.0000    0.08080   0.57350   0.86200   Biso      1.000     C          -0.092814           
         C23       1.0000    0.17510   0.26900   0.18020   Biso      1.000     C          0.604359  
         C24       1.0000    0.08260   0.38900   0.08910   Biso      1.000     C          -0.005681           
         Dy1       1.0000    0.36783   0.06183   0.34349   Biso      1.000     Dy          2.022176  
         Dy2       1.0000    0.63217   0.93817   0.65651   Biso      1.000     Dy          2.022174  
         H1        1.0000    0.56500   0.72140   0.31510   Biso      1.000     H          0.121748  
         H2        1.0000    0.49080   0.47170   0.72000   Biso      1.000     H          0.128384  
         H3        1.0000    0.96070   0.14720   0.12030   Biso      1.000     H          0.109536  
         H4        1.0000    0.77970   0.88260   0.01710   Biso      1.000     H          0.123043  
         H5        1.0000    0.27400   0.43980   0.91690   Biso      1.000     H          0.118077  
         H6        1.0000    0.13580   0.62190   0.76930   Biso      1.000     H          0.114725  
         H7        1.0000    0.43500   0.27860   0.68490   Biso      1.000     H          0.12174700000000001           
         H8        1.0000    0.50920   0.52830   0.28000   Biso      1.000     H          0.128383  
         H9        1.0000    0.03930   0.85280   0.87970   Biso      1.000     H          0.109536  
         H10       1.0000    0.22030   0.11740   0.98290   Biso      1.000     H          0.123043  
         H11       1.0000    0.72600   0.56020   0.08310   Biso      1.000     H          0.118077  
         H12       1.0000    0.86420   0.37810   0.23070   Biso      1.000     H          0.114725  
         O1        1.0000    0.44380   0.01820   0.82910   Biso      1.000     O          -0.627406           
         O2        1.0000    0.34530   0.87840   0.76700   Biso      1.000     O          -0.6312810000000001           
         O3        1.0000    0.37120   0.28880   0.35610   Biso      1.000     O          -0.584707           
         O4        1.0000    0.47300   0.13010   0.52440   Biso      1.000     O          -0.777213           
         O5        1.0000    0.32400   0.23810   0.13000   Biso      1.000     O          -0.6153489999999999           
         O6        1.0000    0.65470   0.12160   0.23300   Biso      1.000     O          -0.6312810000000001           
         O7        1.0000    0.55620   0.98180   0.17090   Biso      1.000     O          -0.627406           
         O8        1.0000    0.62880   0.71120   0.64390   Biso      1.000     O          -0.584707           
         O9        1.0000    0.52700   0.86990   0.47560   Biso      1.000     O          -0.777213           
         O10       1.0000    0.89680   0.80200   0.69340   Biso      1.000     O          -0.701567           
         O11       1.0000    0.10320   0.19800   0.30660   Biso      1.000     O          -0.701567           
         O12       1.0000    0.67600   0.76190   0.87000   Biso      1.000     O          -0.6153489999999999 