
##########################################################################
#               Crystallographic Information Format file
#               Produced by PyCifRW module
#
#  This is a CIF file.  CIF has been adopted by the International
#  Union of Crystallography as the standard for data archiving and
#  transmission.
#
#  For information on this file format, follow the CIF links at
#  http://www.iucr.org
##########################################################################

data_image0

_cell_length_a                          15.7428
_cell_length_b                          16.5562
_cell_length_c                          16.976
_cell_angle_alpha                       99.866
_cell_angle_beta                        95.617
_cell_angle_gamma                       115.06
_symmetry_space_group_name_H-M          'P 1'
_symmetry_int_tables_number             1
loop_
  _symmetry_equiv_pos_as_xyz
         'x, y, z' 
loop_
  _atom_site_label
  _atom_site_occupancy
  _atom_site_fract_x
  _atom_site_fract_y
  _atom_site_fract_z
  _atom_site_thermal_displace_type
  _atom_site_B_iso_or_equiv
  _atom_site_type_symbol
  _atom_site_charge
         C1        1.0000    0.49200   0.66390   0.28990   Biso      1.000     C          0.605431  
         C2        1.0000    0.22650   0.51580   0.40650   Biso      1.000     C          -0.07095800000000001          
         C3        1.0000    0.14440   0.51920   0.37370   Biso      1.000     C          -0.174859           
         C4        1.0000    0.10660   0.56180   0.42730   Biso      1.000     C          0.181582  
         C5        1.0000    0.76280   0.56320   0.32790   Biso      1.000     C          -0.077252           
         C6        1.0000    0.85060   0.56900   0.35840   Biso      1.000     C          -0.150911           
         C7        1.0000    0.90350   0.55180   0.30740   Biso      1.000     C          0.172175  
         C8        1.0000    0.86740   0.51780   0.22410   Biso      1.000     C          -0.173791           
         C9        1.0000    0.78290   0.52400   0.19560   Biso      1.000     C          -0.10944100000000001          
         C10       1.0000    0.73060   0.54330   0.24830   Biso      1.000     C          -0.013911000000000001         
         C11       1.0000    0.22140   0.19230   0.42130   Biso      1.000     C          -0.09565  
         C12       1.0000    0.49120   0.74240   0.34840   Biso      1.000     C          -0.015826           
         C13       1.0000    0.52800   0.82850   0.32870   Biso      1.000     C          -0.104131           
         C14       1.0000    0.52460   0.90110   0.38210   Biso      1.000     C          -0.160024           
         C15       1.0000    0.49010   0.89150   0.45250   Biso      1.000     C          0.17975   
         C16       1.0000    0.46190   0.80840   0.47190   Biso      1.000     C          -0.144323           
         C17       1.0000    0.46190   0.73580   0.41930   Biso      1.000     C          -0.075988           
         C18       1.0000    0.47910   0.35180   0.01370   Biso      1.000     C          0.679956  
         C19       1.0000    0.27540   0.55340   0.48640   Biso      1.000     C          -0.029901           
         C20       1.0000    0.63630   0.53200   0.21550   Biso      1.000     C          0.678426  
         C21       1.0000    0.23500   0.59910   0.53440   Biso      1.000     C          -0.084815           
         C22       1.0000    0.36070   0.54760   0.51780   Biso      1.000     C          0.66696   
         C23       1.0000    0.15760   0.14160   0.55870   Biso      1.000     C          -0.165484           
         C24       1.0000    0.24330   0.21940   0.56570   Biso      1.000     C          -0.085101           
         C25       1.0000    0.27570   0.24580   0.49690   Biso      1.000     C          -0.028464999999999997         
         C26       1.0000    0.36480   0.33060   0.50130   Biso      1.000     C          0.669338  
         C27       1.0000    0.21840   0.23110   0.10180   Biso      1.000     C          -0.103902           
         C28       1.0000    0.15010   0.15010   0.05090   Biso      1.000     C          -0.15182  
         C29       1.0000    0.07000   0.09750   0.08090   Biso      1.000     C          0.180111  
         C30       1.0000    0.06340   0.12490   0.15830   Biso      1.000     C          -0.157795           
         C31       1.0000    0.13100   0.20850   0.20800   Biso      1.000     C          -0.090683           
         C32       1.0000    0.20950   0.26070   0.17740   Biso      1.000     C          -0.020766999999999997         
         C33       1.0000    0.28600   0.34630   0.23420   Biso      1.000     C          0.624163  
         C34       1.0000    0.50960   0.22960   0.93410   Biso      1.000     C          -0.093285           
         C35       1.0000    0.51000   0.14560   0.92490   Biso      1.000     C          -0.154952           
         C36       1.0000    0.50000   0.10430   0.98640   Biso      1.000     C          0.17741300000000002           
         C37       1.0000    0.46780   0.13420   0.05190   Biso      1.000     C          -0.153048           
         C38       1.0000    0.46230   0.21610   0.05930   Biso      1.000     C          -0.08821799999999999          
         C39       1.0000    0.48610   0.26410   0.00250   Biso      1.000     C          -0.028952999999999996         
         C40       1.0000    0.15210   0.60550   0.50730   Biso      1.000     C          -0.165588           
         C41       1.0000    0.26940   0.45670   0.75170   Biso      1.000     C          -0.013949000000000001         
         C42       1.0000    0.21710   0.47600   0.80440   Biso      1.000     C          -0.10943199999999999          
         C43       1.0000    0.13260   0.48220   0.77590   Biso      1.000     C          -0.173788           
         C44       1.0000    0.78160   0.76890   0.89820   Biso      1.000     C          -0.103902           
         C45       1.0000    0.63520   0.66940   0.49870   Biso      1.000     C          0.669338  
         C46       1.0000    0.72430   0.75420   0.50310   Biso      1.000     C          -0.028468           
         C47       1.0000    0.75670   0.78060   0.43430   Biso      1.000     C          -0.085099           
         C48       1.0000    0.84240   0.85840   0.44130   Biso      1.000     C          -0.16548800000000002          
         C49       1.0000    0.89600   0.91010   0.51770   Biso      1.000     C          0.16908399999999998           
         C50       1.0000    0.86520   0.88530   0.58750   Biso      1.000     C          -0.172711           
         C51       1.0000    0.77860   0.80770   0.57870   Biso      1.000     C          -0.09565  
         C52       1.0000    0.50800   0.33610   0.71010   Biso      1.000     C          0.605431  
         C53       1.0000    0.50880   0.25760   0.65160   Biso      1.000     C          -0.015826           
         C54       1.0000    0.47200   0.17150   0.67130   Biso      1.000     C          -0.10413  
         C55       1.0000    0.47540   0.09890   0.61790   Biso      1.000     C          -0.160027           
         C56       1.0000    0.50990   0.10850   0.54750   Biso      1.000     C          0.17976199999999998           
         C57       1.0000    0.53810   0.19160   0.52810   Biso      1.000     C          -0.14432  
         C58       1.0000    0.53810   0.26420   0.58070   Biso      1.000     C          -0.07599  
         C59       1.0000    0.52090   0.64820   0.98630   Biso      1.000     C          0.6799609999999999  
         C60       1.0000    0.36370   0.46800   0.78450   Biso      1.000     C          0.678429  
         C61       1.0000    0.84990   0.84990   0.94910   Biso      1.000     C          -0.151822           
         C62       1.0000    0.93000   0.90250   0.91910   Biso      1.000     C          0.180121  
         C63       1.0000    0.93660   0.87510   0.84170   Biso      1.000     C          -0.15779200000000002          
         C64       1.0000    0.86900   0.79150   0.79200   Biso      1.000     C          -0.090685           
         C65       1.0000    0.09650   0.44820   0.69260   Biso      1.000     C          0.17216199999999998           
         C66       1.0000    0.14940   0.43100   0.64160   Biso      1.000     C          -0.150893           
         C67       1.0000    0.23720   0.43680   0.67210   Biso      1.000     C          -0.07721900000000001          
         C68       1.0000    0.89340   0.43820   0.57270   Biso      1.000     C          0.181571  
         C69       1.0000    0.85560   0.48080   0.62630   Biso      1.000     C          -0.17485699999999998          
         C70       1.0000    0.77350   0.48420   0.59350   Biso      1.000     C          -0.07095599999999999          
         C71       1.0000    0.72460   0.44660   0.51360   Biso      1.000     C          -0.029901999999999998         
         C72       1.0000    0.76500   0.40090   0.46560   Biso      1.000     C          -0.084814           
         C73       1.0000    0.10400   0.08990   0.48230   Biso      1.000     C          0.169075  
         C74       1.0000    0.84790   0.39450   0.49270   Biso      1.000     C          -0.16559000000000001          
         C75       1.0000    0.51390   0.73590   0.99750   Biso      1.000     C          -0.029002999999999998         
         C76       1.0000    0.53770   0.78390   0.94070   Biso      1.000     C          -0.088181           
         C77       1.0000    0.53220   0.86580   0.94810   Biso      1.000     C          -0.153061           
         C78       1.0000    0.50000   0.89570   0.01360   Biso      1.000     C          0.177403  
         C79       1.0000    0.49000   0.85440   0.07510   Biso      1.000     C          -0.154925           
         C80       1.0000    0.49040   0.77040   0.06590   Biso      1.000     C          -0.093266           
         C81       1.0000    0.71400   0.65370   0.76580   Biso      1.000     C          0.624163  
         C82       1.0000    0.79050   0.73930   0.82260   Biso      1.000     C          -0.020766999999999997         
         C83       1.0000    0.63930   0.45240   0.48220   Biso      1.000     C          0.66696   
         C84       1.0000    0.13480   0.11470   0.41250   Biso      1.000     C          -0.172713           
         Ce1       1.0000    0.47106   0.46071   0.36548   Biso      1.000     Ce          2.142872  
         Ce2       1.0000    0.44698   0.51738   0.13974   Biso      1.000     Ce          2.048937  
         Ce3       1.0000    0.52894   0.53929   0.63452   Biso      1.000     Ce          2.142872  
         Ce4       1.0000    0.55302   0.48262   0.86026   Biso      1.000     Ce          2.048937  
         H1        1.0000    0.11620   0.49440   0.31890   Biso      1.000     H          0.123431  
         H2        1.0000    0.24350   0.20860   0.37480   Biso      1.000     H          0.11172   
         H3        1.0000    0.09860   0.08060   0.36110   Biso      1.000     H          0.124004  
         H4        1.0000    0.13640   0.12440   0.60520   Biso      1.000     H          0.119724  
         H5        1.0000    0.27920   0.25400   0.61710   Biso      1.000     H          0.11923299999999999           
         H6        1.0000    0.27240   0.26640   0.08290   Biso      1.000     H          0.110471  
         H7        1.0000    0.15710   0.13110   0.99810   Biso      1.000     H          0.12244000000000001           
         H8        1.0000    0.01250   0.08710   0.17910   Biso      1.000     H          0.126191  
         H9        1.0000    0.12380   0.22880   0.26040   Biso      1.000     H          0.126708  
         H10       1.0000    0.51730   0.11760   0.87540   Biso      1.000     H          0.124981  
         H11       1.0000    0.44180   0.23800   0.10410   Biso      1.000     H          0.12351500000000001           
         H12       1.0000    0.55360   0.83680   0.28190   Biso      1.000     H          0.12384400000000001           
         H13       1.0000    0.12840   0.63770   0.54150   Biso      1.000     H          0.13358599999999998           
         H14       1.0000    0.26560   0.62730   0.58830   Biso      1.000     H          0.11217   
         H15       1.0000    0.25120   0.48540   0.37160   Biso      1.000     H          0.105439  
         H16       1.0000    0.55930   0.32040   0.56640   Biso      1.000     H          0.11576900000000001           
         H17       1.0000    0.72560   0.57340   0.36390   Biso      1.000     H          0.11150299999999999           
         H18       1.0000    0.87270   0.58480   0.41440   Biso      1.000     H          0.117871  
         H19       1.0000    0.89670   0.49270   0.18930   Biso      1.000     H          0.126868  
         H20       1.0000    0.76310   0.51470   0.13990   Biso      1.000     H          0.10820199999999999           
         H21       1.0000    0.45000   0.09990   0.09080   Biso      1.000     H          0.119769  
         H22       1.0000    0.54660   0.95800   0.36910   Biso      1.000     H          0.11100299999999999           
         H23       1.0000    0.52530   0.26240   0.89400   Biso      1.000     H          0.10382899999999999           
         H24       1.0000    0.44070   0.67960   0.43360   Biso      1.000     H          0.11576900000000001           
         H25       1.0000    0.55740   0.19890   0.47870   Biso      1.000     H          0.123047  
         H26       1.0000    0.44260   0.80110   0.52130   Biso      1.000     H          0.123046  
         H27       1.0000    0.44640   0.16320   0.71810   Biso      1.000     H          0.12384400000000001           
         H28       1.0000    0.75650   0.79140   0.62520   Biso      1.000     H          0.11172   
         H29       1.0000    0.90140   0.91940   0.63890   Biso      1.000     H          0.12400499999999999           
         H30       1.0000    0.86360   0.87560   0.39480   Biso      1.000     H          0.11972200000000001           
         H31       1.0000    0.72080   0.74600   0.38290   Biso      1.000     H          0.11923299999999999           
         H32       1.0000    0.72760   0.73360   0.91710   Biso      1.000     H          0.110472  
         H33       1.0000    0.84290   0.86890   0.00190   Biso      1.000     H          0.122438  
         H34       1.0000    0.98750   0.91290   0.82090   Biso      1.000     H          0.126192  
         H35       1.0000    0.87620   0.77120   0.73960   Biso      1.000     H          0.126708  
         H36       1.0000    0.47470   0.73760   0.10600   Biso      1.000     H          0.103827  
         H37       1.0000    0.45340   0.04200   0.63090   Biso      1.000     H          0.111     
         H38       1.0000    0.55000   0.90010   0.90920   Biso      1.000     H          0.11976600000000001           
         H39       1.0000    0.23690   0.48530   0.86010   Biso      1.000     H          0.108201  
         H40       1.0000    0.10330   0.50730   0.81070   Biso      1.000     H          0.12687   
         H41       1.0000    0.27440   0.42660   0.63610   Biso      1.000     H          0.111501  
         H42       1.0000    0.88380   0.50560   0.68110   Biso      1.000     H          0.12343399999999999           
         H43       1.0000    0.12730   0.41520   0.58560   Biso      1.000     H          0.117868  
         H44       1.0000    0.73440   0.37270   0.41170   Biso      1.000     H          0.112171  
         H45       1.0000    0.87160   0.36230   0.45850   Biso      1.000     H          0.13358499999999998           
         H46       1.0000    0.55820   0.76200   0.89590   Biso      1.000     H          0.12351300000000001           
         H47       1.0000    0.74880   0.51460   0.62840   Biso      1.000     H          0.105439  
         H48       1.0000    0.48270   0.88240   0.12460   Biso      1.000     H          0.12498   
         N1        1.0000    0.00800   0.45400   0.66850   Biso      1.000     N          -0.131394           
         N2        1.0000    0.51110   0.03550   0.48940   Biso      1.000     N          -0.12604500000000002          
         N3        1.0000    0.98720   0.99220   0.53140   Biso      1.000     N          -0.126307           
         N4        1.0000    0.00530   0.98750   0.96600   Biso      1.000     N          -0.13106600000000002          
         N5        1.0000    0.49510   0.98390   0.02920   Biso      1.000     N          -0.114049           
         N6        1.0000    0.97770   0.42790   0.59620   Biso      1.000     N          -0.121065           
         N7        1.0000    0.48890   0.96450   0.51060   Biso      1.000     N          -0.125923           
         N8        1.0000    0.99470   0.01250   0.03400   Biso      1.000     N          -0.130965           
         N9        1.0000    0.50490   0.01610   0.97080   Biso      1.000     N          -0.113918           
         N10       1.0000    0.02230   0.57210   0.40380   Biso      1.000     N          -0.121183           
         N11       1.0000    0.99200   0.54600   0.33150   Biso      1.000     N          -0.131279           
         N12       1.0000    0.01280   0.00780   0.46860   Biso      1.000     N          -0.126209           
         O1        1.0000    0.43060   0.49420   0.74640   Biso      1.000     O          -0.749358           
         O2        1.0000    0.55500   0.41600   0.69780   Biso      1.000     O          -0.729592           
         O3        1.0000    0.60180   0.61470   0.43020   Biso      1.000     O          -0.6667890000000001           
         O4        1.0000    0.60030   0.66170   0.55990   Biso      1.000     O          -0.670136           
         O5        1.0000    0.71330   0.63810   0.69280   Biso      1.000     O          -0.57724  
         O6        1.0000    0.64780   0.60160   0.79590   Biso      1.000     O          -0.780055           
         O7        1.0000    0.54450   0.62060   0.92210   Biso      1.000     O          -0.6517149999999999           
         O8        1.0000    0.59910   0.48260   0.53150   Biso      1.000     O          -0.730464           
         O9        1.0000    0.60610   0.42410   0.40850   Biso      1.000     O          -0.644844           
         O10       1.0000    0.37490   0.44900   0.84800   Biso      1.000     O          -0.605005           
         O11       1.0000    0.50490   0.39830   0.96250   Biso      1.000     O          -0.716648           
         O12       1.0000    0.46760   0.32180   0.76910   Biso      1.000     O          -0.6074189999999999           
         O13       1.0000    0.44500   0.58400   0.30220   Biso      1.000     O          -0.729592           
         O14       1.0000    0.39820   0.38530   0.56980   Biso      1.000     O          -0.6667890000000001           
         O15       1.0000    0.39970   0.33830   0.44010   Biso      1.000     O          -0.670136           
         O16       1.0000    0.28670   0.36190   0.30720   Biso      1.000     O          -0.57724  
         O17       1.0000    0.35220   0.39840   0.20410   Biso      1.000     O          -0.780055           
         O18       1.0000    0.45550   0.37940   0.07790   Biso      1.000     O          -0.6517149999999999           
         O19       1.0000    0.40090   0.51740   0.46850   Biso      1.000     O          -0.730464           
         O20       1.0000    0.39390   0.57590   0.59150   Biso      1.000     O          -0.644845           
         O21       1.0000    0.62510   0.55100   0.15200   Biso      1.000     O          -0.605005           
         O22       1.0000    0.56940   0.50580   0.25360   Biso      1.000     O          -0.7493569999999999           
         O23       1.0000    0.53240   0.67820   0.23090   Biso      1.000     O          -0.6074189999999999           
         O24       1.0000    0.49510   0.60170   0.03750   Biso      1.000     O          -0.716647 