
##########################################################################
#               Crystallographic Information Format file
#               Produced by PyCifRW module
#
#  This is a CIF file.  CIF has been adopted by the International
#  Union of Crystallography as the standard for data archiving and
#  transmission.
#
#  For information on this file format, follow the CIF links at
#  http://www.iucr.org
##########################################################################

data_image0

_cell_length_a                          16.0636
_cell_length_b                          16.0636
_cell_length_c                          27.915
_cell_angle_alpha                       79.8902
_cell_angle_beta                        79.8902
_cell_angle_gamma                       63.1763
_symmetry_space_group_name_H-M          'P 1'
_symmetry_int_tables_number             1
loop_
  _symmetry_equiv_pos_as_xyz
         'x, y, z' 
loop_
  _atom_site_label
  _atom_site_occupancy
  _atom_site_fract_x
  _atom_site_fract_y
  _atom_site_fract_z
  _atom_site_thermal_displace_type
  _atom_site_B_iso_or_equiv
  _atom_site_type_symbol
  _atom_site_charge
         C1        1.0000    0.86030   0.35850   0.71140   Biso      1.000     C          -0.15782000000000002          
         C2        1.0000    0.61800   0.11300   0.87716   Biso      1.000     C          -0.027594           
         C3        1.0000    0.57870   0.07590   0.92305   Biso      1.000     C          0.6616270000000001  
         C4        1.0000    0.75570   0.14310   0.11911   Biso      1.000     C          -0.083744           
         C5        1.0000    0.80000   0.16900   0.14743   Biso      1.000     C          -0.155799           
         C6        1.0000    0.78010   0.15450   0.19880   Biso      1.000     C          0.204674  
         C7        1.0000    0.72010   0.11470   0.21964   Biso      1.000     C          -0.156918           
         C8        1.0000    0.67820   0.08700   0.18990   Biso      1.000     C          -0.10174  
         C9        1.0000    0.70420   0.09280   0.13883   Biso      1.000     C          -0.009445           
         C10       1.0000    0.64490   0.07650   0.10989   Biso      1.000     C          0.587559  
         C11       1.0000    0.81270   0.30710   0.70460   Biso      1.000     C          0.218536  
         C12       1.0000    0.89930   0.39670   0.66835   Biso      1.000     C          -0.089763           
         C13       1.0000    0.87030   0.66470   0.51904   Biso      1.000     C          0.648308  
         C14       1.0000    0.77694   0.74054   0.51249   Biso      1.000     C          -0.01656  
         C15       1.0000    0.75010   0.82090   0.53582   Biso      1.000     C          -0.087029           
         C16       1.0000    0.66430   0.89510   0.52850   Biso      1.000     C          -0.149109           
         C17       1.0000    0.60227   0.88967   0.49899   Biso      1.000     C          0.217573  
         C18       1.0000    0.62920   0.81080   0.47884   Biso      1.000     C          -0.144772           
         C19       1.0000    0.66740   0.16320   0.87949   Biso      1.000     C          -0.085903           
         C20       1.0000    0.71526   0.73526   0.48386   Biso      1.000     C          -0.115481           
         C21       1.0000    0.70520   0.20020   0.83880   Biso      1.000     C          -0.148044           
         C22       1.0000    0.64150   0.13970   0.78860   Biso      1.000     C          -0.157823           
         C23       1.0000    0.88700   0.38200   0.62284   Biso      1.000     C          -0.027594           
         C24       1.0000    0.92410   0.42130   0.57695   Biso      1.000     C          0.6616270000000001  
         C25       1.0000    0.85690   0.24430   0.38089   Biso      1.000     C          -0.083745           
         C26       1.0000    0.83100   0.20000   0.35257   Biso      1.000     C          -0.155798           
         C27       1.0000    0.84550   0.21990   0.30120   Biso      1.000     C          0.204678  
         C28       1.0000    0.88530   0.27990   0.28036   Biso      1.000     C          -0.156919           
         C29       1.0000    0.91300   0.32180   0.31010   Biso      1.000     C          -0.10174  
         C30       1.0000    0.90720   0.29580   0.36117   Biso      1.000     C          -0.009445           
         C31       1.0000    0.92350   0.35510   0.39011   Biso      1.000     C          0.587559  
         C32       1.0000    0.26474   0.28474   0.01614   Biso      1.000     C          -0.115479           
         C33       1.0000    0.18920   0.37080   0.02116   Biso      1.000     C          -0.144798           
         C34       1.0000    0.11033   0.39773   0.00101   Biso      1.000     C          0.2176    
         C35       1.0000    0.10490   0.33570   0.97150   Biso      1.000     C          -0.149114           
         C36       1.0000    0.17910   0.24990   0.96418   Biso      1.000     C          -0.08702599999999999          
         C37       1.0000    0.25946   0.22306   0.98751   Biso      1.000     C          -0.01656  
         C38       1.0000    0.33530   0.12970   0.98096   Biso      1.000     C          0.648307  
         C39       1.0000    0.60330   0.10070   0.83165   Biso      1.000     C          -0.089762           
         C40       1.0000    0.69290   0.18730   0.79540   Biso      1.000     C          0.21857   
         C41       1.0000    0.35510   0.92350   0.89011   Biso      1.000     C          0.587559  
         C42       1.0000    0.29580   0.90720   0.86117   Biso      1.000     C          -0.009447           
         C43       1.0000    0.32180   0.91300   0.81010   Biso      1.000     C          -0.101741           
         C44       1.0000    0.15450   0.78010   0.69880   Biso      1.000     C          0.204675  
         C45       1.0000    0.16900   0.80000   0.64743   Biso      1.000     C          -0.15581  
         C46       1.0000    0.14310   0.75570   0.61911   Biso      1.000     C          -0.083733           
         C47       1.0000    0.07590   0.57870   0.42305   Biso      1.000     C          0.6616270000000001  
         C48       1.0000    0.11300   0.61800   0.37716   Biso      1.000     C          -0.027594           
         C49       1.0000    0.16320   0.66740   0.37949   Biso      1.000     C          -0.085903           
         C50       1.0000    0.20020   0.70520   0.33880   Biso      1.000     C          -0.148044           
         C51       1.0000    0.18730   0.69290   0.29540   Biso      1.000     C          0.21857   
         C52       1.0000    0.13970   0.64150   0.28860   Biso      1.000     C          -0.157823           
         C53       1.0000    0.10070   0.60330   0.33165   Biso      1.000     C          -0.089762           
         C54       1.0000    0.12970   0.33530   0.48096   Biso      1.000     C          0.648308  
         C55       1.0000    0.22306   0.25946   0.48751   Biso      1.000     C          -0.01656  
         C56       1.0000    0.24990   0.17910   0.46418   Biso      1.000     C          -0.087029           
         C57       1.0000    0.33570   0.10490   0.47150   Biso      1.000     C          -0.14911  
         C58       1.0000    0.39773   0.11033   0.50101   Biso      1.000     C          0.217575  
         C59       1.0000    0.37080   0.18920   0.52116   Biso      1.000     C          -0.144771           
         C60       1.0000    0.28474   0.26474   0.51614   Biso      1.000     C          -0.115481           
         C61       1.0000    0.11470   0.72010   0.71964   Biso      1.000     C          -0.156919           
         C62       1.0000    0.08700   0.67820   0.68990   Biso      1.000     C          -0.10174  
         C63       1.0000    0.09280   0.70420   0.63883   Biso      1.000     C          -0.009447           
         C64       1.0000    0.07650   0.64490   0.60989   Biso      1.000     C          0.587559  
         C65       1.0000    0.27990   0.88530   0.78036   Biso      1.000     C          -0.156919           
         C66       1.0000    0.21990   0.84550   0.80120   Biso      1.000     C          0.20468   
         C67       1.0000    0.20000   0.83100   0.85257   Biso      1.000     C          -0.155809           
         C68       1.0000    0.24430   0.85690   0.88089   Biso      1.000     C          -0.083733           
         C69       1.0000    0.42130   0.92410   0.07695   Biso      1.000     C          0.6616270000000001  
         C70       1.0000    0.38200   0.88700   0.12284   Biso      1.000     C          -0.027594           
         C71       1.0000    0.33260   0.83680   0.12051   Biso      1.000     C          -0.085903           
         C72       1.0000    0.29480   0.79980   0.16120   Biso      1.000     C          -0.148044           
         C73       1.0000    0.83680   0.33260   0.62051   Biso      1.000     C          -0.085908           
         C74       1.0000    0.30710   0.81270   0.20460   Biso      1.000     C          0.21856799999999998           
         C75       1.0000    0.39670   0.89930   0.16835   Biso      1.000     C          -0.089762           
         C76       1.0000    0.66470   0.87030   0.01904   Biso      1.000     C          0.648307  
         C77       1.0000    0.74054   0.77694   0.01249   Biso      1.000     C          -0.01656  
         C78       1.0000    0.82090   0.75010   0.03582   Biso      1.000     C          -0.08703  
         C79       1.0000    0.89510   0.66430   0.02850   Biso      1.000     C          -0.149109           
         C80       1.0000    0.88967   0.60227   0.99899   Biso      1.000     C          0.217575  
         C81       1.0000    0.81080   0.62920   0.97884   Biso      1.000     C          -0.144771           
         C82       1.0000    0.73526   0.71526   0.98386   Biso      1.000     C          -0.115481           
         C83       1.0000    0.35850   0.86030   0.21140   Biso      1.000     C          -0.157823           
         C84       1.0000    0.79980   0.29480   0.66120   Biso      1.000     C          -0.148009           
         Gd1       1.0000    0.53127   0.06657   0.04611   Biso      1.000     Gd          2.012393  
         Gd2       1.0000    0.93343   0.46873   0.45389   Biso      1.000     Gd          2.012393  
         Gd3       1.0000    0.46873   0.93343   0.95389   Biso      1.000     Gd          2.012393  
         Gd4       1.0000    0.06657   0.53127   0.54611   Biso      1.000     Gd          2.012393  
         H1        1.0000    0.67520   0.17240   0.91010   Biso      1.000     H          0.12093399999999999           
         H2        1.0000    0.93220   0.43080   0.67060   Biso      1.000     H          0.13106800000000002           
         H3        1.0000    0.86600   0.36720   0.74250   Biso      1.000     H          0.134022  
         H4        1.0000    0.76660   0.26140   0.65860   Biso      1.000     H          0.130072  
         H5        1.0000    0.82760   0.32480   0.58990   Biso      1.000     H          0.12093399999999999           
         H6        1.0000    0.84010   0.23970   0.41450   Biso      1.000     H          0.124923  
         H7        1.0000    0.80520   0.15880   0.36650   Biso      1.000     H          0.132968  
         H8        1.0000    0.89350   0.29230   0.24650   Biso      1.000     H          0.12496700000000001           
         H9        1.0000    0.93510   0.36630   0.29650   Biso      1.000     H          0.125142  
         H10       1.0000    0.19330   0.41190   0.03930   Biso      1.000     H          0.123499  
         H11       1.0000    0.17620   0.21080   0.94430   Biso      1.000     H          0.13918699999999998           
         H12       1.0000    0.78920   0.82380   0.55570   Biso      1.000     H          0.13918699999999998           
         H13       1.0000    0.56920   0.06780   0.82940   Biso      1.000     H          0.13106800000000002           
         H14       1.0000    0.63280   0.13400   0.75750   Biso      1.000     H          0.134022  
         H15       1.0000    0.73860   0.23340   0.84140   Biso      1.000     H          0.130074  
         H16       1.0000    0.26750   0.31810   0.53130   Biso      1.000     H          0.100716  
         H17       1.0000    0.76030   0.15990   0.08550   Biso      1.000     H          0.124923  
         H18       1.0000    0.84120   0.19480   0.13350   Biso      1.000     H          0.132967  
         H19       1.0000    0.70770   0.10650   0.25350   Biso      1.000     H          0.12496700000000001           
         H20       1.0000    0.63370   0.06490   0.20350   Biso      1.000     H          0.125142  
         H21       1.0000    0.05040   0.35380   0.95710   Biso      1.000     H          0.124529  
         H22       1.0000    0.64620   0.94960   0.54290   Biso      1.000     H          0.124529  
         H23       1.0000    0.31810   0.26750   0.03130   Biso      1.000     H          0.100715  
         H24       1.0000    0.73250   0.68190   0.46870   Biso      1.000     H          0.100716  
         H25       1.0000    0.41190   0.19330   0.53930   Biso      1.000     H          0.12349700000000001           
         H26       1.0000    0.58810   0.80670   0.46070   Biso      1.000     H          0.12349700000000001           
         H27       1.0000    0.21080   0.17620   0.44430   Biso      1.000     H          0.13918699999999998           
         H28       1.0000    0.06780   0.56920   0.32940   Biso      1.000     H          0.13106800000000002           
         H29       1.0000    0.13400   0.63280   0.25750   Biso      1.000     H          0.134022  
         H30       1.0000    0.23340   0.73860   0.34140   Biso      1.000     H          0.130074  
         H31       1.0000    0.17240   0.67520   0.41010   Biso      1.000     H          0.12093399999999999           
         H32       1.0000    0.15990   0.76030   0.58550   Biso      1.000     H          0.124923  
         H33       1.0000    0.19480   0.84120   0.63350   Biso      1.000     H          0.132968  
         H34       1.0000    0.10650   0.70770   0.75350   Biso      1.000     H          0.12496700000000001           
         H35       1.0000    0.06490   0.63370   0.70350   Biso      1.000     H          0.125142  
         H36       1.0000    0.68190   0.73250   0.96870   Biso      1.000     H          0.100716  
         H37       1.0000    0.35380   0.05040   0.45710   Biso      1.000     H          0.124529  
         H38       1.0000    0.94960   0.64620   0.04290   Biso      1.000     H          0.124529  
         H39       1.0000    0.36630   0.93510   0.79650   Biso      1.000     H          0.125142  
         H40       1.0000    0.29230   0.89350   0.74650   Biso      1.000     H          0.12496700000000001           
         H41       1.0000    0.23970   0.84010   0.91450   Biso      1.000     H          0.124922  
         H42       1.0000    0.32480   0.82760   0.08990   Biso      1.000     H          0.12093399999999999           
         H43       1.0000    0.15880   0.80520   0.86650   Biso      1.000     H          0.132968  
         H44       1.0000    0.36720   0.86600   0.24250   Biso      1.000     H          0.134022  
         H45       1.0000    0.43080   0.93220   0.17060   Biso      1.000     H          0.13106800000000002           
         H46       1.0000    0.82380   0.78920   0.05570   Biso      1.000     H          0.13918699999999998           
         H47       1.0000    0.26140   0.76660   0.15860   Biso      1.000     H          0.130075  
         H48       1.0000    0.80670   0.58810   0.96070   Biso      1.000     H          0.12349700000000001           
         N1        1.0000    0.17984   0.80924   0.77478   Biso      1.000     N          -0.188147           
         N2        1.0000    0.48427   0.04427   0.50515   Biso      1.000     N          -0.177957           
         N3        1.0000    0.22594   0.72374   0.25095   Biso      1.000     N          -0.19451  
         N4        1.0000    0.19076   0.82016   0.72522   Biso      1.000     N          -0.18811  
         N5        1.0000    0.95573   0.51573   0.99485   Biso      1.000     N          -0.177957           
         N6        1.0000    0.27626   0.77406   0.24905   Biso      1.000     N          -0.194496           
         N7        1.0000    0.51573   0.95573   0.49485   Biso      1.000     N          -0.17793399999999998          
         N8        1.0000    0.80924   0.17984   0.27478   Biso      1.000     N          -0.188147           
         N9        1.0000    0.04427   0.48427   0.00515   Biso      1.000     N          -0.17793599999999998          
         N10       1.0000    0.72374   0.22594   0.75095   Biso      1.000     N          -0.194511           
         N11       1.0000    0.82016   0.19076   0.22522   Biso      1.000     N          -0.18811  
         N12       1.0000    0.77406   0.27626   0.74905   Biso      1.000     N          -0.194493           
         O1        1.0000    0.40957   0.95815   0.87394   Biso      1.000     O          -0.620108           
         O2        1.0000    0.03631   0.53091   0.41401   Biso      1.000     O          -0.674188           
         O3        1.0000    0.08463   0.59233   0.46494   Biso      1.000     O          -0.657732           
         O4        1.0000    0.10355   0.65655   0.56349   Biso      1.000     O          -0.68252  
         O5        1.0000    0.04185   0.59043   0.62606   Biso      1.000     O          -0.620108           
         O6        1.0000    0.67528   0.92060   0.04616   Biso      1.000     O          -0.592    
         O7        1.0000    0.59708   0.89628   0.99711   Biso      1.000     O          -0.7458819999999999           
         O8        1.0000    0.46909   0.96369   0.08599   Biso      1.000     O          -0.674188           
         O9        1.0000    0.40767   0.91537   0.03506   Biso      1.000     O          -0.657732           
         O10       1.0000    0.34345   0.89645   0.93651   Biso      1.000     O          -0.68252  
         O11       1.0000    0.92060   0.67528   0.54616   Biso      1.000     O          -0.592    
         O12       1.0000    0.10372   0.40292   0.50289   Biso      1.000     O          -0.7458819999999999           
         O13       1.0000    0.96369   0.46909   0.58599   Biso      1.000     O          -0.674188           
         O14       1.0000    0.91537   0.40767   0.53506   Biso      1.000     O          -0.657732           
         O15       1.0000    0.89645   0.34345   0.43651   Biso      1.000     O          -0.68252  
         O16       1.0000    0.95815   0.40957   0.37394   Biso      1.000     O          -0.620108           
         O17       1.0000    0.32472   0.07940   0.95384   Biso      1.000     O          -0.592    
         O18       1.0000    0.40292   0.10372   0.00289   Biso      1.000     O          -0.7458819999999999           
         O19       1.0000    0.53091   0.03631   0.91401   Biso      1.000     O          -0.674188           
         O20       1.0000    0.59233   0.08463   0.96494   Biso      1.000     O          -0.657732           
         O21       1.0000    0.65655   0.10355   0.06349   Biso      1.000     O          -0.68252  
         O22       1.0000    0.59043   0.04185   0.12606   Biso      1.000     O          -0.620108           
         O23       1.0000    0.89628   0.59708   0.49711   Biso      1.000     O          -0.7458819999999999           
         O24       1.0000    0.07940   0.32472   0.45384   Biso      1.000     O          -0.592 