
##########################################################################
#               Crystallographic Information Format file
#               Produced by PyCifRW module
#
#  This is a CIF file.  CIF has been adopted by the International
#  Union of Crystallography as the standard for data archiving and
#  transmission.
#
#  For information on this file format, follow the CIF links at
#  http://www.iucr.org
##########################################################################

data_image0

_cell_length_a                          7.7719
_cell_length_b                          12.6613
_cell_length_c                          12.6613
_cell_angle_alpha                       64.0745
_cell_angle_beta                        78.1933
_cell_angle_gamma                       101.807
_symmetry_space_group_name_H-M          'P 1'
_symmetry_int_tables_number             1
loop_
  _symmetry_equiv_pos_as_xyz
         'x, y, z' 
loop_
  _atom_site_label
  _atom_site_occupancy
  _atom_site_fract_x
  _atom_site_fract_y
  _atom_site_fract_z
  _atom_site_thermal_displace_type
  _atom_site_B_iso_or_equiv
  _atom_site_type_symbol
  _atom_site_charge
         C1        1.0000    0.93966   0.28224   0.17746   Biso      1.000     C          -0.085246           
         C2        1.0000    0.88288   0.82254   0.45970   Biso      1.000     C          -0.082995           
         C3        1.0000    0.70184   0.84814   0.48242   Biso      1.000     C          0.5812649999999999  
         C4        1.0000    0.17144   0.81174   0.70472   Biso      1.000     C          0.10900499999999999           
         C5        1.0000    0.43017   0.81107   0.76426   Biso      1.000     C          0.237048  
         C6        1.0000    0.14854   0.67626   0.91034   Biso      1.000     C          0.107627  
         C7        1.0000    0.06034   0.71776   0.82254   Biso      1.000     C          -0.085246           
         C8        1.0000    0.85370   0.66944   0.84814   Biso      1.000     C          0.582036  
         C9        1.0000    0.87616   0.70472   0.48354   Biso      1.000     C          0.106717  
         C10       1.0000    0.18426   0.48242   0.66944   Biso      1.000     C          0.581815  
         C11       1.0000    0.34258   0.45970   0.71776   Biso      1.000     C          -0.08289099999999999          
         C12       1.0000    0.47228   0.41340   0.67626   Biso      1.000     C          0.106921  
         C13       1.0000    0.61910   0.42467   0.81107   Biso      1.000     C          0.235605  
         C14       1.0000    0.35970   0.48354   0.81174   Biso      1.000     C          0.10595   
         C15       1.0000    0.14630   0.33056   0.15186   Biso      1.000     C          0.582037  
         C16       1.0000    0.85146   0.32374   0.08966   Biso      1.000     C          0.107628  
         C17       1.0000    0.56983   0.18893   0.23574   Biso      1.000     C          0.237048  
         C18       1.0000    0.82856   0.18826   0.29528   Biso      1.000     C          0.10900699999999999           
         C19       1.0000    0.29816   0.15186   0.51758   Biso      1.000     C          0.5812649999999999  
         C20       1.0000    0.11712   0.17746   0.54030   Biso      1.000     C          -0.082993           
         C21       1.0000    0.94112   0.08966   0.58660   Biso      1.000     C          0.10648699999999998           
         C22       1.0000    0.80557   0.23574   0.57533   Biso      1.000     C          0.23304699999999998           
         C23       1.0000    0.12384   0.29528   0.51646   Biso      1.000     C          0.10671900000000001           
         C24       1.0000    0.81574   0.51758   0.33056   Biso      1.000     C          0.581814  
         C25       1.0000    0.65742   0.54030   0.28224   Biso      1.000     C          -0.082892           
         C26       1.0000    0.52772   0.58660   0.32374   Biso      1.000     C          0.10691600000000001           
         C27       1.0000    0.38090   0.57533   0.18893   Biso      1.000     C          0.235604  
         C28       1.0000    0.64030   0.51646   0.18826   Biso      1.000     C          0.105947  
         C29       1.0000    0.05888   0.91034   0.41340   Biso      1.000     C          0.106483  
         C30       1.0000    0.19443   0.76426   0.42467   Biso      1.000     C          0.23304499999999997           
         Cu1       1.0000    0.50000   0.50000   0.00000   Biso      1.000     Cu          0.765493  
         Cu2       1.0000    0.50000   0.00000   0.50000   Biso      1.000     Cu          0.767606  
         Cu3       1.0000    0.00000   0.50000   0.50000   Biso      1.000     Cu          0.767163  
         H1        1.0000    0.28200   0.58300   0.15700   Biso      1.000     H          0.08947100000000001           
         H2        1.0000    0.72200   0.48200   0.15800   Biso      1.000     H          0.10063   
         H3        1.0000    0.08300   0.61500   0.99200   Biso      1.000     H          0.10733399999999998           
         H4        1.0000    0.56100   0.84300   0.74000   Biso      1.000     H          0.08960599999999999           
         H5        1.0000    0.12000   0.84200   0.64000   Biso      1.000     H          0.098539  
         H6        1.0000    0.07500   0.99200   0.39300   Biso      1.000     H          0.10681600000000001           
         H7        1.0000    0.30100   0.74000   0.41700   Biso      1.000     H          0.091394  
         H8        1.0000    0.46800   0.39300   0.61500   Biso      1.000     H          0.106652  
         H9        1.0000    0.76000   0.64000   0.51800   Biso      1.000     H          0.099587  
         H10       1.0000    0.27800   0.51800   0.84200   Biso      1.000     H          0.100631  
         H11       1.0000    0.91700   0.38500   0.00800   Biso      1.000     H          0.10733399999999998           
         H12       1.0000    0.43900   0.15700   0.26000   Biso      1.000     H          0.08960599999999999           
         H13       1.0000    0.88000   0.15800   0.36000   Biso      1.000     H          0.098539  
         H14       1.0000    0.92500   0.00800   0.60700   Biso      1.000     H          0.10681700000000001           
         H15       1.0000    0.69900   0.26000   0.58300   Biso      1.000     H          0.091396  
         H16       1.0000    0.24000   0.36000   0.48200   Biso      1.000     H          0.099588  
         H17       1.0000    0.53200   0.60700   0.38500   Biso      1.000     H          0.106652  
         H18       1.0000    0.71800   0.41700   0.84300   Biso      1.000     H          0.08947100000000001           
         N1        1.0000    0.66547   0.27733   0.11882   Biso      1.000     N          -0.279094           
         N2        1.0000    0.38814   0.60385   0.27733   Biso      1.000     N          -0.278125           
         N3        1.0000    0.50302   0.53370   0.14034   Biso      1.000     N          -0.24886599999999998          
         N4        1.0000    0.78429   0.11882   0.60385   Biso      1.000     N          -0.277366           
         N5        1.0000    0.96932   0.32596   0.53370   Biso      1.000     N          -0.249304           
         N6        1.0000    0.64336   0.14034   0.32596   Biso      1.000     N          -0.250199           
         N7        1.0000    0.33453   0.72267   0.88118   Biso      1.000     N          -0.279092           
         N8        1.0000    0.49698   0.46630   0.85966   Biso      1.000     N          -0.24886399999999997          
         N9        1.0000    0.21571   0.88118   0.39615   Biso      1.000     N          -0.277368           
         N10       1.0000    0.03068   0.67404   0.46630   Biso      1.000     N          -0.24930500000000003          
         N11       1.0000    0.35664   0.85966   0.67404   Biso      1.000     N          -0.250201           
         N12       1.0000    0.61186   0.39615   0.72267   Biso      1.000     N          -0.278125           
         O1        1.0000    0.43860   0.22141   0.51201   Biso      1.000     O          -0.545197           
         O2        1.0000    0.28664   0.05546   0.50554   Biso      1.000     O          -0.554718           
         O3        1.0000    0.21719   0.26658   0.22141   Biso      1.000     O          -0.5447960000000001           
         O4        1.0000    0.23118   0.43900   0.05546   Biso      1.000     O          -0.55371  
         O5        1.0000    0.04939   0.48799   0.73342   Biso      1.000     O          -0.545514           
         O6        1.0000    0.56140   0.77859   0.48799   Biso      1.000     O          -0.545199           
         O7        1.0000    0.71336   0.94454   0.49446   Biso      1.000     O          -0.55472  
         O8        1.0000    0.78281   0.73342   0.77859   Biso      1.000     O          -0.544795           
         O9        1.0000    0.76882   0.56100   0.94454   Biso      1.000     O          -0.553709           
         O10       1.0000    0.79218   0.50554   0.43900   Biso      1.000     O          -0.555658           
         O11       1.0000    0.20782   0.49446   0.56100   Biso      1.000     O          -0.555658           
         O12       1.0000    0.95061   0.51201   0.26658   Biso      1.000     O          -0.545514 