
##########################################################################
#               Crystallographic Information Format file
#               Produced by PyCifRW module
#
#  This is a CIF file.  CIF has been adopted by the International
#  Union of Crystallography as the standard for data archiving and
#  transmission.
#
#  For information on this file format, follow the CIF links at
#  http://www.iucr.org
##########################################################################

data_image0

_cell_length_a                          11.258
_cell_length_b                          12.602
_cell_length_c                          14.689
_cell_angle_alpha                       90
_cell_angle_beta                        90
_cell_angle_gamma                       90
_symmetry_space_group_name_H-M          'P 1'
_symmetry_int_tables_number             1
loop_
  _symmetry_equiv_pos_as_xyz
         'x, y, z' 
loop_
  _atom_site_label
  _atom_site_occupancy
  _atom_site_fract_x
  _atom_site_fract_y
  _atom_site_fract_z
  _atom_site_thermal_displace_type
  _atom_site_B_iso_or_equiv
  _atom_site_type_symbol
  _atom_site_charge
         C1        1.0000    0.03250   0.01310   0.16750   Biso      1.000     C          0.660012  
         C2        1.0000    0.80320   0.61600   0.92360   Biso      1.000     C          0.665087  
         C3        1.0000    0.88550   0.54940   0.86380   Biso      1.000     C          -0.136254           
         C4        1.0000    0.92950   0.44540   0.90340   Biso      1.000     C          0.64685   
         C5        1.0000    0.96750   0.98690   0.83250   Biso      1.000     C          0.660593  
         C6        1.0000    0.00000   0.05270   0.75000   Biso      1.000     C          -0.255682           
         C7        1.0000    0.61450   0.04940   0.86380   Biso      1.000     C          -0.21788400000000002          
         C8        1.0000    0.57050   0.94540   0.90340   Biso      1.000     C          0.6486729999999999  
         C9        1.0000    0.53250   0.51310   0.33250   Biso      1.000     C          0.6600699999999999  
         C10       1.0000    0.80320   0.38400   0.42360   Biso      1.000     C          0.665013  
         C11       1.0000    0.88550   0.45060   0.36380   Biso      1.000     C          -0.135829           
         C12       1.0000    0.92950   0.55460   0.40340   Biso      1.000     C          0.646964  
         C13       1.0000    0.03250   0.98690   0.66750   Biso      1.000     C          0.6593319999999999  
         C14       1.0000    0.30320   0.11600   0.57640   Biso      1.000     C          0.6658229999999999  
         C15       1.0000    0.38550   0.04940   0.63620   Biso      1.000     C          -0.208802           
         C16       1.0000    0.42950   0.94540   0.59660   Biso      1.000     C          0.646496  
         C17       1.0000    0.46750   0.51310   0.16750   Biso      1.000     C          0.6620739999999999  
         C18       1.0000    0.19680   0.38400   0.07640   Biso      1.000     C          0.669025  
         C19       1.0000    0.11450   0.45060   0.13620   Biso      1.000     C          -0.22726999999999997          
         C20       1.0000    0.07050   0.55460   0.09660   Biso      1.000     C          0.648591  
         C21       1.0000    0.00000   0.94730   0.25000   Biso      1.000     C          -0.26908000000000004          
         C22       1.0000    0.50000   0.55270   0.75000   Biso      1.000     C          -0.266284           
         C23       1.0000    0.53250   0.48690   0.83250   Biso      1.000     C          0.659931  
         C24       1.0000    0.57050   0.05460   0.40340   Biso      1.000     C          0.64844   
         C25       1.0000    0.69680   0.11600   0.92360   Biso      1.000     C          0.6665220000000001  
         C26       1.0000    0.69680   0.88400   0.42360   Biso      1.000     C          0.6695760000000001  
         C27       1.0000    0.30320   0.88400   0.07640   Biso      1.000     C          0.66501   
         C28       1.0000    0.38550   0.95060   0.13620   Biso      1.000     C          -0.134006           
         C29       1.0000    0.42950   0.05460   0.09660   Biso      1.000     C          0.646654  
         C30       1.0000    0.61450   0.95060   0.36380   Biso      1.000     C          -0.228183           
         C31       1.0000    0.19680   0.61600   0.57640   Biso      1.000     C          0.6675979999999999  
         C32       1.0000    0.11450   0.54940   0.63620   Biso      1.000     C          -0.22077600000000003          
         C33       1.0000    0.07050   0.44540   0.59660   Biso      1.000     C          0.64695   
         C34       1.0000    0.46750   0.48690   0.66750   Biso      1.000     C          0.660538  
         C35       1.0000    0.50000   0.44730   0.25000   Biso      1.000     C          -0.271572           
         C36       1.0000    0.96750   0.01310   0.33250   Biso      1.000     C          0.661402  
         Nd1       1.0000    0.85083   0.88657   0.99259   Biso      1.000     Nd          2.197359  
         Nd2       1.0000    0.35083   0.38657   0.50741   Biso      1.000     Nd          2.196082  
         Nd3       1.0000    0.14917   0.11343   0.00741   Biso      1.000     Nd          2.198113  
         Nd4       1.0000    0.35083   0.61343   0.00741   Biso      1.000     Nd          2.1983080000000004  
         Nd5       1.0000    0.14917   0.88657   0.50741   Biso      1.000     Nd          2.19392   
         Nd6       1.0000    0.64917   0.38657   0.99259   Biso      1.000     Nd          2.195349  
         Nd7       1.0000    0.85083   0.11343   0.49259   Biso      1.000     Nd          2.198236  
         Nd8       1.0000    0.64917   0.61343   0.49259   Biso      1.000     Nd          2.195039  
         O1        1.0000    0.21990   0.93030   0.03070   Biso      1.000     O          -0.650464           
         O2        1.0000    0.31470   0.21550   0.57520   Biso      1.000     O          -0.68024  
         O3        1.0000    0.10380   0.91500   0.67500   Biso      1.000     O          -0.5269560000000001           
         O4        1.0000    0.31470   0.78450   0.07520   Biso      1.000     O          -0.675726           
         O5        1.0000    0.98330   0.00880   0.59110   Biso      1.000     O          -0.795242           
         O6        1.0000    0.35450   0.11620   0.06040   Biso      1.000     O          -0.6956600000000001           
         O7        1.0000    0.21990   0.06970   0.53070   Biso      1.000     O          -0.656467           
         O8        1.0000    0.35450   0.88380   0.56040   Biso      1.000     O          -0.6917909999999999           
         O9        1.0000    0.10380   0.08500   0.17500   Biso      1.000     O          -0.53104  
         O10       1.0000    0.98330   0.99120   0.09110   Biso      1.000     O          -0.79487  
         O11       1.0000    0.53430   0.07110   0.09520   Biso      1.000     O          -0.48988100000000007          
         O12       1.0000    0.01670   0.99120   0.40890   Biso      1.000     O          -0.79598  
         O13       1.0000    0.39620   0.58500   0.17500   Biso      1.000     O          -0.530281           
         O14       1.0000    0.51670   0.49120   0.09110   Biso      1.000     O          -0.798257           
         O15       1.0000    0.28010   0.43030   0.03070   Biso      1.000     O          -0.656105           
         O16       1.0000    0.18530   0.28450   0.07520   Biso      1.000     O          -0.679733           
         O17       1.0000    0.14550   0.61620   0.06040   Biso      1.000     O          -0.692427           
         O18       1.0000    0.96570   0.57110   0.09520   Biso      1.000     O          -0.506292           
         O19       1.0000    0.89620   0.08500   0.32500   Biso      1.000     O          -0.529932           
         O20       1.0000    0.53430   0.92890   0.59520   Biso      1.000     O          -0.49578900000000004          
         O21       1.0000    0.03430   0.57110   0.40480   Biso      1.000     O          -0.491284           
         O22       1.0000    0.96570   0.42890   0.59520   Biso      1.000     O          -0.504475           
         O23       1.0000    0.81470   0.28450   0.42480   Biso      1.000     O          -0.675604           
         O24       1.0000    0.14550   0.38380   0.56040   Biso      1.000     O          -0.688214           
         O25       1.0000    0.18530   0.71550   0.57520   Biso      1.000     O          -0.6790930000000001           
         O26       1.0000    0.60380   0.41500   0.82500   Biso      1.000     O          -0.529446           
         O27       1.0000    0.48330   0.50880   0.90890   Biso      1.000     O          -0.7944100000000001           
         O28       1.0000    0.71990   0.56970   0.96930   Biso      1.000     O          -0.651763           
         O29       1.0000    0.81470   0.71550   0.92480   Biso      1.000     O          -0.6753060000000001           
         O30       1.0000    0.85450   0.38380   0.93960   Biso      1.000     O          -0.697534           
         O31       1.0000    0.03430   0.42890   0.90480   Biso      1.000     O          -0.490687           
         O32       1.0000    0.28010   0.56970   0.53070   Biso      1.000     O          -0.65536  
         O33       1.0000    0.51670   0.50880   0.59110   Biso      1.000     O          -0.7977920000000001           
         O34       1.0000    0.39620   0.41500   0.67500   Biso      1.000     O          -0.5267270000000001           
         O35       1.0000    0.89620   0.91500   0.82500   Biso      1.000     O          -0.528753           
         O36       1.0000    0.01670   0.00880   0.90890   Biso      1.000     O          -0.796658           
         O37       1.0000    0.78010   0.06970   0.96930   Biso      1.000     O          -0.658475           
         O38       1.0000    0.68530   0.21550   0.92480   Biso      1.000     O          -0.680203           
         O39       1.0000    0.64550   0.88380   0.93960   Biso      1.000     O          -0.695422           
         O40       1.0000    0.46570   0.92890   0.90480   Biso      1.000     O          -0.5032770000000001           
         O41       1.0000    0.46570   0.07110   0.40480   Biso      1.000     O          -0.50158  
         O42       1.0000    0.64550   0.11620   0.43960   Biso      1.000     O          -0.6921010000000001           
         O43       1.0000    0.68530   0.78450   0.42480   Biso      1.000     O          -0.680291           
         O44       1.0000    0.78010   0.93030   0.46930   Biso      1.000     O          -0.656404           
         O45       1.0000    0.60380   0.58500   0.32500   Biso      1.000     O          -0.531169           
         O46       1.0000    0.48330   0.49120   0.40890   Biso      1.000     O          -0.794008           
         O47       1.0000    0.85450   0.61620   0.43960   Biso      1.000     O          -0.69745  
         O48       1.0000    0.71990   0.43030   0.46930   Biso      1.000     O          -0.6513869999999999 