
##########################################################################
#               Crystallographic Information Format file
#               Produced by PyCifRW module
#
#  This is a CIF file.  CIF has been adopted by the International
#  Union of Crystallography as the standard for data archiving and
#  transmission.
#
#  For information on this file format, follow the CIF links at
#  http://www.iucr.org
##########################################################################

data_image0

_cell_length_a                          9.1351
_cell_length_b                          17.419
_cell_length_c                          15.583
_cell_angle_alpha                       90
_cell_angle_beta                        90
_cell_angle_gamma                       90
_symmetry_space_group_name_H-M          'P 1'
_symmetry_int_tables_number             1
loop_
  _symmetry_equiv_pos_as_xyz
         'x, y, z' 
loop_
  _atom_site_label
  _atom_site_occupancy
  _atom_site_fract_x
  _atom_site_fract_y
  _atom_site_fract_z
  _atom_site_thermal_displace_type
  _atom_site_B_iso_or_equiv
  _atom_site_type_symbol
  _atom_site_charge
         C1        1.0000    0.36380   0.04451   0.74781   Biso      1.000     C          -0.099377           
         C2        1.0000    0.72270   0.67022   0.69150   Biso      1.000     C          -0.198087           
         C3        1.0000    0.80160   0.71171   0.63210   Biso      1.000     C          0.076617  
         C4        1.0000    0.63620   0.54451   0.75219   Biso      1.000     C          -0.099376           
         C5        1.0000    0.46910   0.54281   0.73320   Biso      1.000     C          -0.083981           
         C6        1.0000    0.36480   0.59640   0.77752   Biso      1.000     C          0.145971  
         C7        1.0000    0.40460   0.63973   0.84800   Biso      1.000     C          -0.200666           
         C8        1.0000    0.30020   0.68260   0.89040   Biso      1.000     C          0.093633  
         C9        1.0000    0.12000   0.64350   0.79780   Biso      1.000     C          0.085964  
         C10       1.0000    0.21840   0.60058   0.75120   Biso      1.000     C          -0.203406           
         C11       1.0000    0.72930   0.59078   0.69187   Biso      1.000     C          0.153788  
         C12       1.0000    0.10240   0.89712   0.57540   Biso      1.000     C          0.091324  
         C13       1.0000    0.27070   0.90922   0.69187   Biso      1.000     C          0.153787  
         C14       1.0000    0.27730   0.82978   0.69150   Biso      1.000     C          -0.198087           
         C15       1.0000    0.19840   0.78829   0.63210   Biso      1.000     C          0.076617  
         C16       1.0000    0.36380   0.95549   0.75219   Biso      1.000     C          -0.099376           
         C17       1.0000    0.53090   0.95719   0.73320   Biso      1.000     C          -0.083981           
         C18       1.0000    0.63520   0.90360   0.77752   Biso      1.000     C          0.145971  
         C19       1.0000    0.59540   0.86027   0.84800   Biso      1.000     C          -0.200666           
         C20       1.0000    0.69980   0.81740   0.89040   Biso      1.000     C          0.093633  
         C21       1.0000    0.88000   0.85650   0.79780   Biso      1.000     C          0.085964  
         C22       1.0000    0.17870   0.94304   0.63250   Biso      1.000     C          -0.197025           
         C23       1.0000    0.78160   0.89942   0.75120   Biso      1.000     C          -0.203406           
         C24       1.0000    0.82130   0.55696   0.63250   Biso      1.000     C          -0.197027           
         C25       1.0000    0.78160   0.10058   0.74880   Biso      1.000     C          -0.203409           
         C26       1.0000    0.30020   0.31740   0.60960   Biso      1.000     C          0.093633  
         C27       1.0000    0.40460   0.36027   0.65200   Biso      1.000     C          -0.200667           
         C28       1.0000    0.36480   0.40360   0.72248   Biso      1.000     C          0.145972  
         C29       1.0000    0.46910   0.45719   0.76680   Biso      1.000     C          -0.083981           
         C30       1.0000    0.63620   0.45549   0.74781   Biso      1.000     C          -0.099376           
         C31       1.0000    0.80160   0.28829   0.86790   Biso      1.000     C          0.076614  
         C32       1.0000    0.72270   0.32978   0.80850   Biso      1.000     C          -0.198084           
         C33       1.0000    0.72930   0.40922   0.80813   Biso      1.000     C          0.153787  
         C34       1.0000    0.82130   0.44304   0.86750   Biso      1.000     C          -0.197026           
         C35       1.0000    0.89760   0.60288   0.57540   Biso      1.000     C          0.091325  
         C36       1.0000    0.89760   0.39712   0.92460   Biso      1.000     C          0.091325  
         C37       1.0000    0.17870   0.05696   0.86750   Biso      1.000     C          -0.197029           
         C38       1.0000    0.27070   0.09078   0.80813   Biso      1.000     C          0.15379   
         C39       1.0000    0.27730   0.17022   0.80850   Biso      1.000     C          -0.198087           
         C40       1.0000    0.19840   0.21171   0.86790   Biso      1.000     C          0.076617  
         C41       1.0000    0.53090   0.04281   0.76680   Biso      1.000     C          -0.083981           
         C42       1.0000    0.63520   0.09640   0.72248   Biso      1.000     C          0.145971  
         C43       1.0000    0.59540   0.13973   0.65200   Biso      1.000     C          -0.200666           
         C44       1.0000    0.69980   0.18260   0.60960   Biso      1.000     C          0.093633  
         C45       1.0000    0.88000   0.14350   0.70220   Biso      1.000     C          0.085967  
         C46       1.0000    0.10240   0.10288   0.92460   Biso      1.000     C          0.091325  
         C47       1.0000    0.10240   0.60288   0.07540   Biso      1.000     C          0.091324  
         C48       1.0000    0.17870   0.55696   0.13250   Biso      1.000     C          -0.197027           
         C49       1.0000    0.27070   0.59078   0.19187   Biso      1.000     C          0.153789  
         C50       1.0000    0.19840   0.28829   0.36790   Biso      1.000     C          0.076614  
         C51       1.0000    0.36380   0.45549   0.24781   Biso      1.000     C          -0.099376           
         C52       1.0000    0.53090   0.45719   0.26680   Biso      1.000     C          -0.083981           
         C53       1.0000    0.63520   0.40360   0.22248   Biso      1.000     C          0.145971  
         C54       1.0000    0.59540   0.36027   0.15200   Biso      1.000     C          -0.200666           
         C55       1.0000    0.69980   0.31740   0.10960   Biso      1.000     C          0.093633  
         C56       1.0000    0.88000   0.35650   0.20220   Biso      1.000     C          0.085964  
         C57       1.0000    0.78160   0.39942   0.24880   Biso      1.000     C          -0.203406           
         C58       1.0000    0.89760   0.10288   0.42460   Biso      1.000     C          0.091324  
         C59       1.0000    0.27730   0.32978   0.30850   Biso      1.000     C          -0.198084           
         C60       1.0000    0.82130   0.05696   0.36750   Biso      1.000     C          -0.197027           
         C61       1.0000    0.72270   0.17022   0.30850   Biso      1.000     C          -0.198087           
         C62       1.0000    0.80160   0.21171   0.36790   Biso      1.000     C          0.076618  
         C63       1.0000    0.63620   0.04451   0.24781   Biso      1.000     C          -0.099377           
         C64       1.0000    0.46910   0.04281   0.26680   Biso      1.000     C          -0.083981           
         C65       1.0000    0.36480   0.09640   0.22248   Biso      1.000     C          0.145971  
         C66       1.0000    0.40460   0.13973   0.15200   Biso      1.000     C          -0.200666           
         C67       1.0000    0.30020   0.18260   0.10960   Biso      1.000     C          0.093633  
         C68       1.0000    0.12000   0.14350   0.20220   Biso      1.000     C          0.085964  
         C69       1.0000    0.21840   0.10058   0.24880   Biso      1.000     C          -0.203406           
         C70       1.0000    0.72930   0.09078   0.30813   Biso      1.000     C          0.15379   
         C71       1.0000    0.27070   0.40922   0.30813   Biso      1.000     C          0.153787  
         C72       1.0000    0.17870   0.44304   0.36750   Biso      1.000     C          -0.197027           
         C73       1.0000    0.10240   0.39712   0.42460   Biso      1.000     C          0.091325  
         C74       1.0000    0.27730   0.67022   0.19150   Biso      1.000     C          -0.198087           
         C75       1.0000    0.19840   0.71171   0.13210   Biso      1.000     C          0.076617  
         C76       1.0000    0.36380   0.54451   0.25219   Biso      1.000     C          -0.099377           
         C77       1.0000    0.53090   0.54281   0.23320   Biso      1.000     C          -0.083981           
         C78       1.0000    0.63520   0.59640   0.27752   Biso      1.000     C          0.145971  
         C79       1.0000    0.59540   0.63973   0.34800   Biso      1.000     C          -0.200666           
         C80       1.0000    0.69980   0.68260   0.39040   Biso      1.000     C          0.093633  
         C81       1.0000    0.88000   0.64350   0.29780   Biso      1.000     C          0.085964  
         C82       1.0000    0.78160   0.60058   0.25120   Biso      1.000     C          -0.203406           
         C83       1.0000    0.89760   0.89712   0.07540   Biso      1.000     C          0.091324  
         C84       1.0000    0.82130   0.94304   0.13250   Biso      1.000     C          -0.197027           
         C85       1.0000    0.72930   0.90922   0.19187   Biso      1.000     C          0.153789  
         C86       1.0000    0.72270   0.82978   0.19150   Biso      1.000     C          -0.198087           
         C87       1.0000    0.80160   0.78829   0.13210   Biso      1.000     C          0.076618  
         C88       1.0000    0.63620   0.95549   0.25219   Biso      1.000     C          -0.099377           
         C89       1.0000    0.46910   0.95719   0.23320   Biso      1.000     C          -0.083981           
         C90       1.0000    0.36480   0.90360   0.27752   Biso      1.000     C          0.145971  
         C91       1.0000    0.40460   0.86027   0.34800   Biso      1.000     C          -0.200666           
         C92       1.0000    0.30020   0.81740   0.39040   Biso      1.000     C          0.093633  
         C93       1.0000    0.12000   0.85650   0.29780   Biso      1.000     C          0.085964  
         C94       1.0000    0.21840   0.89942   0.25120   Biso      1.000     C          -0.203406           
         C95       1.0000    0.12000   0.35650   0.70220   Biso      1.000     C          0.085965  
         C96       1.0000    0.21840   0.39942   0.74880   Biso      1.000     C          -0.203406           
         Cd1       1.0000    0.00000   0.25000   0.03918   Biso      1.000     Cd          0.680275  
         Cd2       1.0000    0.00000   0.75000   0.46082   Biso      1.000     Cd          0.680275  
         Cd3       1.0000    0.00000   0.25000   0.53918   Biso      1.000     Cd          0.680275  
         Cd4       1.0000    0.00000   0.75000   0.96082   Biso      1.000     Cd          0.680275  
         Cl1       1.0000    0.19519   0.35998   0.04894   Biso      1.000     Cl          -0.628344           
         Cl2       1.0000    0.80481   0.14002   0.04894   Biso      1.000     Cl          -0.628344           
         Cl3       1.0000    0.19519   0.14002   0.54894   Biso      1.000     Cl          -0.628344           
         Cl4       1.0000    0.80481   0.35998   0.54894   Biso      1.000     Cl          -0.628344           
         Cl5       1.0000    0.80481   0.85998   0.45106   Biso      1.000     Cl          -0.628344           
         Cl6       1.0000    0.80481   0.64002   0.95106   Biso      1.000     Cl          -0.628344           
         Cl7       1.0000    0.19519   0.85998   0.95106   Biso      1.000     Cl          -0.628344           
         Cl8       1.0000    0.19519   0.64002   0.45106   Biso      1.000     Cl          -0.628344           
         H1        1.0000    0.79510   0.76560   0.63320   Biso      1.000     H          0.081565  
         H2        1.0000    0.97830   0.14470   0.72000   Biso      1.000     H          0.087452  
         H3        1.0000    0.81250   0.07410   0.79810   Biso      1.000     H          0.126847  
         H4        1.0000    0.96070   0.57900   0.53600   Biso      1.000     H          0.089961  
         H5        1.0000    0.83190   0.50330   0.63090   Biso      1.000     H          0.127704  
         H6        1.0000    0.66420   0.69590   0.73200   Biso      1.000     H          0.124072  
         H7        1.0000    0.65330   0.56150   0.81200   Biso      1.000     H          0.103609  
         H8        1.0000    0.18750   0.57410   0.70190   Biso      1.000     H          0.126847  
         H9        1.0000    0.18750   0.07410   0.29810   Biso      1.000     H          0.126847  
         H10       1.0000    0.32960   0.71240   0.93760   Biso      1.000     H          0.091722  
         H11       1.0000    0.02170   0.64470   0.78000   Biso      1.000     H          0.087453  
         H12       1.0000    0.67040   0.21240   0.56240   Biso      1.000     H          0.091722  
         H13       1.0000    0.03930   0.92100   0.53600   Biso      1.000     H          0.089961  
         H14       1.0000    0.16810   0.99670   0.63090   Biso      1.000     H          0.127704  
         H15       1.0000    0.45190   0.54380   0.67050   Biso      1.000     H          0.106069  
         H16       1.0000    0.49780   0.14000   0.63300   Biso      1.000     H          0.128329  
         H17       1.0000    0.16810   0.00330   0.86910   Biso      1.000     H          0.127704  
         H18       1.0000    0.34670   0.06150   0.68800   Biso      1.000     H          0.103609  
         H19       1.0000    0.96070   0.42100   0.96400   Biso      1.000     H          0.089961  
         H20       1.0000    0.83190   0.49670   0.86910   Biso      1.000     H          0.127704  
         H21       1.0000    0.66420   0.30410   0.76800   Biso      1.000     H          0.124072  
         H22       1.0000    0.79510   0.23440   0.86680   Biso      1.000     H          0.081565  
         H23       1.0000    0.65330   0.43850   0.68800   Biso      1.000     H          0.103609  
         H24       1.0000    0.45190   0.45620   0.82950   Biso      1.000     H          0.106069  
         H25       1.0000    0.54810   0.04380   0.82950   Biso      1.000     H          0.106069  
         H26       1.0000    0.50220   0.36000   0.63300   Biso      1.000     H          0.128329  
         H27       1.0000    0.02170   0.35530   0.72000   Biso      1.000     H          0.087453  
         H28       1.0000    0.18750   0.42590   0.79810   Biso      1.000     H          0.126847  
         H29       1.0000    0.03930   0.07900   0.96400   Biso      1.000     H          0.089961  
         H30       1.0000    0.33580   0.80410   0.73200   Biso      1.000     H          0.124072  
         H31       1.0000    0.33580   0.19590   0.76800   Biso      1.000     H          0.124072  
         H32       1.0000    0.20490   0.26560   0.86680   Biso      1.000     H          0.081565  
         H33       1.0000    0.32960   0.28760   0.56240   Biso      1.000     H          0.091722  
         H34       1.0000    0.20490   0.73440   0.63320   Biso      1.000     H          0.081565  
         H35       1.0000    0.02170   0.14470   0.22000   Biso      1.000     H          0.087453  
         H36       1.0000    0.54810   0.95620   0.67050   Biso      1.000     H          0.106069  
         H37       1.0000    0.18750   0.92590   0.20190   Biso      1.000     H          0.126847  
         H38       1.0000    0.03930   0.42100   0.46400   Biso      1.000     H          0.089961  
         H39       1.0000    0.16810   0.49670   0.36910   Biso      1.000     H          0.127704  
         H40       1.0000    0.33580   0.30410   0.26800   Biso      1.000     H          0.124072  
         H41       1.0000    0.20490   0.23440   0.36680   Biso      1.000     H          0.081565  
         H42       1.0000    0.34670   0.43850   0.18800   Biso      1.000     H          0.103609  
         H43       1.0000    0.34670   0.93850   0.81200   Biso      1.000     H          0.103609  
         H44       1.0000    0.49780   0.36000   0.13300   Biso      1.000     H          0.128329  
         H45       1.0000    0.67040   0.28760   0.06240   Biso      1.000     H          0.091722  
         H46       1.0000    0.97830   0.35530   0.22000   Biso      1.000     H          0.087452  
         H47       1.0000    0.81250   0.42590   0.29810   Biso      1.000     H          0.126847  
         H48       1.0000    0.96070   0.07900   0.46400   Biso      1.000     H          0.089961  
         H49       1.0000    0.83190   0.00330   0.36910   Biso      1.000     H          0.127704  
         H50       1.0000    0.66420   0.19590   0.26800   Biso      1.000     H          0.124072  
         H51       1.0000    0.79510   0.26560   0.36680   Biso      1.000     H          0.081565  
         H52       1.0000    0.65330   0.06150   0.18800   Biso      1.000     H          0.103609  
         H53       1.0000    0.45190   0.04380   0.32950   Biso      1.000     H          0.106069  
         H54       1.0000    0.50220   0.14000   0.13300   Biso      1.000     H          0.128329  
         H55       1.0000    0.32960   0.21240   0.06240   Biso      1.000     H          0.091722  
         H56       1.0000    0.02170   0.85530   0.28000   Biso      1.000     H          0.087453  
         H57       1.0000    0.32960   0.78760   0.43760   Biso      1.000     H          0.091722  
         H58       1.0000    0.54810   0.45620   0.32950   Biso      1.000     H          0.106069  
         H59       1.0000    0.45190   0.95620   0.17050   Biso      1.000     H          0.106069  
         H60       1.0000    0.49780   0.86000   0.86700   Biso      1.000     H          0.128329  
         H61       1.0000    0.67040   0.78760   0.93760   Biso      1.000     H          0.091722  
         H62       1.0000    0.97830   0.85530   0.78000   Biso      1.000     H          0.087453  
         H63       1.0000    0.81250   0.92590   0.70190   Biso      1.000     H          0.126847  
         H64       1.0000    0.03930   0.57900   0.03600   Biso      1.000     H          0.089961  
         H65       1.0000    0.16810   0.50330   0.13090   Biso      1.000     H          0.127704  
         H66       1.0000    0.50220   0.86000   0.36700   Biso      1.000     H          0.128329  
         H67       1.0000    0.33580   0.69590   0.23200   Biso      1.000     H          0.124072  
         H68       1.0000    0.20490   0.76560   0.13320   Biso      1.000     H          0.081565  
         H69       1.0000    0.34670   0.56150   0.31200   Biso      1.000     H          0.103609  
         H70       1.0000    0.50220   0.64000   0.86700   Biso      1.000     H          0.128329  
         H71       1.0000    0.49780   0.64000   0.36700   Biso      1.000     H          0.128329  
         H72       1.0000    0.67040   0.71240   0.43760   Biso      1.000     H          0.091722  
         H73       1.0000    0.65330   0.93850   0.31200   Biso      1.000     H          0.103609  
         H74       1.0000    0.79510   0.73440   0.13320   Biso      1.000     H          0.081565  
         H75       1.0000    0.66420   0.80410   0.23200   Biso      1.000     H          0.124072  
         H76       1.0000    0.83190   0.99670   0.13090   Biso      1.000     H          0.127704  
         H77       1.0000    0.97830   0.64470   0.28000   Biso      1.000     H          0.087453  
         H78       1.0000    0.96070   0.92100   0.03600   Biso      1.000     H          0.089961  
         H79       1.0000    0.81250   0.57410   0.20190   Biso      1.000     H          0.126847  
         H80       1.0000    0.54810   0.54380   0.17050   Biso      1.000     H          0.106069  
         N1        1.0000    0.15880   0.18374   0.13277   Biso      1.000     N          -0.220163           
         N2        1.0000    0.88650   0.17893   0.42661   Biso      1.000     N          -0.223716           
         N3        1.0000    0.84120   0.31626   0.13277   Biso      1.000     N          -0.220163           
         N4        1.0000    0.11350   0.32107   0.42661   Biso      1.000     N          -0.223716           
         N5        1.0000    0.88650   0.82107   0.07339   Biso      1.000     N          -0.223716           
         N6        1.0000    0.84120   0.68374   0.36723   Biso      1.000     N          -0.220163           
         N7        1.0000    0.11350   0.67893   0.07339   Biso      1.000     N          -0.223716           
         N8        1.0000    0.84120   0.81626   0.86723   Biso      1.000     N          -0.220163           
         N9        1.0000    0.11350   0.82107   0.57339   Biso      1.000     N          -0.223716           
         N10       1.0000    0.15880   0.68374   0.86723   Biso      1.000     N          -0.220163           
         N11       1.0000    0.84120   0.18374   0.63277   Biso      1.000     N          -0.220163           
         N12       1.0000    0.11350   0.17893   0.92661   Biso      1.000     N          -0.223716           
         N13       1.0000    0.15880   0.31626   0.63277   Biso      1.000     N          -0.220163           
         N14       1.0000    0.88650   0.32107   0.92661   Biso      1.000     N          -0.223716           
         N15       1.0000    0.15880   0.81626   0.36723   Biso      1.000     N          -0.220163           
         N16       1.0000    0.88650   0.67893   0.57339   Biso      1.000     N          -0.223716 