
##########################################################################
#               Crystallographic Information Format file
#               Produced by PyCifRW module
#
#  This is a CIF file.  CIF has been adopted by the International
#  Union of Crystallography as the standard for data archiving and
#  transmission.
#
#  For information on this file format, follow the CIF links at
#  http://www.iucr.org
##########################################################################

data_image0

_cell_length_a                          10.853
_cell_length_b                          13.291
_cell_length_c                          14.337
_cell_angle_alpha                       90
_cell_angle_beta                        90
_cell_angle_gamma                       90.032
_symmetry_space_group_name_H-M          'P 1'
_symmetry_int_tables_number             1
loop_
  _symmetry_equiv_pos_as_xyz
         'x, y, z' 
loop_
  _atom_site_label
  _atom_site_occupancy
  _atom_site_fract_x
  _atom_site_fract_y
  _atom_site_fract_z
  _atom_site_thermal_displace_type
  _atom_site_B_iso_or_equiv
  _atom_site_type_symbol
  _atom_site_charge
         C1        1.0000    0.09670   0.37750   0.84730   Biso      1.000     C          0.585389  
         C2        1.0000    0.95740   0.56300   0.07230   Biso      1.000     C          -0.042322           
         C3        1.0000    0.90330   0.62250   0.15270   Biso      1.000     C          0.585389  
         C4        1.0000    0.01900   0.53840   0.91230   Biso      1.000     C          -0.109443           
         C5        1.0000    0.74610   0.50650   0.43340   Biso      1.000     C          0.690227  
         C6        1.0000    0.87710   0.50280   0.47160   Biso      1.000     C          -0.018912           
         C7        1.0000    0.91260   0.55530   0.55230   Biso      1.000     C          -0.041135           
         C8        1.0000    0.81880   0.61190   0.61140   Biso      1.000     C          0.677423  
         C9        1.0000    0.96410   0.44800   0.42070   Biso      1.000     C          -0.123626           
         C10       1.0000    0.58960   0.52070   0.18880   Biso      1.000     C          0.677335  
         C11       1.0000    0.53920   0.50720   0.09270   Biso      1.000     C          -0.037832           
         C12       1.0000    0.46450   0.42710   0.06610   Biso      1.000     C          -0.012648           
         C13       1.0000    0.41360   0.34740   0.13030   Biso      1.000     C          0.618095  
         C14       1.0000    0.97800   0.60320   0.98280   Biso      1.000     C          -0.041598           
         C15       1.0000    0.57380   0.57910   0.02660   Biso      1.000     C          -0.106984           
         C16       1.0000    0.52200   0.89680   0.48280   Biso      1.000     C          -0.041598           
         C17       1.0000    0.54260   0.93700   0.57230   Biso      1.000     C          -0.042321           
         C18       1.0000    0.59670   0.87750   0.65270   Biso      1.000     C          0.585389  
         C19       1.0000    0.48100   0.96160   0.41230   Biso      1.000     C          -0.109443           
         C20       1.0000    0.24610   0.00650   0.06660   Biso      1.000     C          0.690227  
         C21       1.0000    0.37710   0.00280   0.02840   Biso      1.000     C          -0.018912           
         C22       1.0000    0.41260   0.05530   0.94770   Biso      1.000     C          -0.041135           
         C23       1.0000    0.31880   0.11190   0.88860   Biso      1.000     C          0.677423  
         C24       1.0000    0.46410   0.94800   0.07930   Biso      1.000     C          -0.123626           
         C25       1.0000    0.08960   0.02070   0.31120   Biso      1.000     C          0.677335  
         C26       1.0000    0.03920   0.00720   0.40730   Biso      1.000     C          -0.037832           
         C27       1.0000    0.96450   0.92710   0.43390   Biso      1.000     C          -0.012648           
         C28       1.0000    0.54010   0.78930   0.45320   Biso      1.000     C          0.712099  
         C29       1.0000    0.95990   0.71070   0.95320   Biso      1.000     C          0.712099  
         C30       1.0000    0.92620   0.92090   0.52660   Biso      1.000     C          -0.106984           
         C31       1.0000    0.08640   0.15260   0.63030   Biso      1.000     C          0.618095  
         C32       1.0000    0.51900   0.03840   0.58770   Biso      1.000     C          -0.109443           
         C33       1.0000    0.40330   0.12250   0.34730   Biso      1.000     C          0.585389  
         C34       1.0000    0.45740   0.06300   0.42770   Biso      1.000     C          -0.042321           
         C35       1.0000    0.47800   0.10320   0.51720   Biso      1.000     C          -0.041598           
         C36       1.0000    0.45990   0.21070   0.54680   Biso      1.000     C          0.712099  
         C37       1.0000    0.42620   0.42090   0.97340   Biso      1.000     C          -0.106984           
         C38       1.0000    0.58640   0.65260   0.86970   Biso      1.000     C          0.618095  
         C39       1.0000    0.53550   0.57290   0.93390   Biso      1.000     C          -0.012649           
         C40       1.0000    0.46080   0.49280   0.90730   Biso      1.000     C          -0.03783  
         C41       1.0000    0.41040   0.47930   0.81120   Biso      1.000     C          0.677335  
         C42       1.0000    0.03590   0.55200   0.57930   Biso      1.000     C          -0.123626           
         C43       1.0000    0.18120   0.38810   0.38860   Biso      1.000     C          0.677423  
         C44       1.0000    0.08740   0.44470   0.44770   Biso      1.000     C          -0.041135           
         C45       1.0000    0.12290   0.49720   0.52840   Biso      1.000     C          -0.018912           
         C46       1.0000    0.25390   0.49350   0.56660   Biso      1.000     C          0.690227  
         C47       1.0000    0.98100   0.46160   0.08770   Biso      1.000     C          -0.109443           
         C48       1.0000    0.04260   0.43700   0.92770   Biso      1.000     C          -0.042321           
         C49       1.0000    0.02200   0.39680   0.01720   Biso      1.000     C          -0.041598           
         C50       1.0000    0.04010   0.28930   0.04680   Biso      1.000     C          0.712099  
         C51       1.0000    0.75390   0.99350   0.93340   Biso      1.000     C          0.690227  
         C52       1.0000    0.62290   0.99720   0.97160   Biso      1.000     C          -0.018912           
         C53       1.0000    0.58740   0.94470   0.05230   Biso      1.000     C          -0.041135           
         C54       1.0000    0.68120   0.88810   0.11140   Biso      1.000     C          0.677423  
         C55       1.0000    0.53590   0.05200   0.92070   Biso      1.000     C          -0.123625           
         C56       1.0000    0.91040   0.97930   0.68880   Biso      1.000     C          0.677335  
         C57       1.0000    0.96080   0.99280   0.59270   Biso      1.000     C          -0.037832           
         C58       1.0000    0.03550   0.07290   0.56610   Biso      1.000     C          -0.012648           
         C59       1.0000    0.91360   0.84740   0.36970   Biso      1.000     C          0.618095  
         C60       1.0000    0.07380   0.07910   0.47340   Biso      1.000     C          -0.106983           
         Gd1       1.0000    0.75557   0.78529   0.78220   Biso      1.000     Gd          2.047932  
         Gd2       1.0000    0.99546   0.86775   0.13831   Biso      1.000     Gd          2.156825  
         Gd3       1.0000    0.00454   0.13225   0.86169   Biso      1.000     Gd          2.156824  
         Gd4       1.0000    0.74443   0.71471   0.28220   Biso      1.000     Gd          2.047932  
         Gd5       1.0000    0.49546   0.36775   0.36169   Biso      1.000     Gd          2.156825  
         Gd6       1.0000    0.24443   0.21471   0.21780   Biso      1.000     Gd          2.047932  
         Gd7       1.0000    0.25557   0.28529   0.71780   Biso      1.000     Gd          2.047932  
         Gd8       1.0000    0.50454   0.63225   0.63831   Biso      1.000     Gd          2.156825  
         H1        1.0000    0.53090   0.06430   0.64720   Biso      1.000     H          0.141889  
         H2        1.0000    0.56080   0.08690   0.86770   Biso      1.000     H          0.13333   
         H3        1.0000    0.87630   0.86740   0.54480   Biso      1.000     H          0.135061  
         H4        1.0000    0.37630   0.36740   0.95520   Biso      1.000     H          0.135061  
         H5        1.0000    0.93920   0.41310   0.36770   Biso      1.000     H          0.13333   
         H6        1.0000    0.62370   0.63260   0.04480   Biso      1.000     H          0.135061  
         H7        1.0000    0.46910   0.93570   0.35280   Biso      1.000     H          0.141889  
         H8        1.0000    0.43920   0.91310   0.13230   Biso      1.000     H          0.13333   
         H9        1.0000    0.12370   0.13260   0.45520   Biso      1.000     H          0.135061  
         H10       1.0000    0.96910   0.43570   0.14720   Biso      1.000     H          0.141889  
         H11       1.0000    0.03090   0.56430   0.85280   Biso      1.000     H          0.141889  
         H12       1.0000    0.06080   0.58690   0.63230   Biso      1.000     H          0.13333   
         O1        1.0000    0.09990   0.27910   0.12080   Biso      1.000     O          -0.643204           
         O2        1.0000    0.88230   0.86700   0.28570   Biso      1.000     O          -0.788847           
         O3        1.0000    0.89320   0.76150   0.40270   Biso      1.000     O          -0.576156           
         O4        1.0000    0.20740   0.09330   0.90600   Biso      1.000     O          -0.673597           
         O5        1.0000    0.10860   0.94500   0.26070   Biso      1.000     O          -0.685219           
         O6        1.0000    0.35720   0.16950   0.82470   Biso      1.000     O          -0.633536           
         O7        1.0000    0.21340   0.08460   0.10800   Biso      1.000     O          -0.685849           
         O8        1.0000    0.98980   0.21880   0.00380   Biso      1.000     O          -0.670649           
         O9        1.0000    0.10910   0.11120   0.28930   Biso      1.000     O          -0.645348           
         O10       1.0000    0.11250   0.41920   0.77030   Biso      1.000     O          -0.559085           
         O11       1.0000    0.61770   0.63300   0.78570   Biso      1.000     O          -0.788847           
         O12       1.0000    0.31910   0.57210   0.55860   Biso      1.000     O          -0.713962           
         O13       1.0000    0.28660   0.41540   0.60800   Biso      1.000     O          -0.685849           
         O14       1.0000    0.29260   0.40670   0.40600   Biso      1.000     O          -0.673598           
         O15       1.0000    0.14280   0.33050   0.32470   Biso      1.000     O          -0.633536           
         O16       1.0000    0.39140   0.55500   0.76070   Biso      1.000     O          -0.685219           
         O17       1.0000    0.39090   0.38880   0.78930   Biso      1.000     O          -0.645348           
         O18       1.0000    0.60680   0.73850   0.90270   Biso      1.000     O          -0.576156           
         O19       1.0000    0.18090   0.92790   0.05860   Biso      1.000     O          -0.713962           
         O20       1.0000    0.40010   0.22090   0.62080   Biso      1.000     O          -0.643204           
         O21       1.0000    0.51020   0.28120   0.50380   Biso      1.000     O          -0.670649           
         O22       1.0000    0.13260   0.28770   0.86110   Biso      1.000     O          -0.765654           
         O23       1.0000    0.63260   0.78770   0.63890   Biso      1.000     O          -0.765654           
         O24       1.0000    0.70740   0.59330   0.59400   Biso      1.000     O          -0.673598           
         O25       1.0000    0.48980   0.71880   0.49620   Biso      1.000     O          -0.670649           
         O26       1.0000    0.38750   0.08080   0.27030   Biso      1.000     O          -0.559085           
         O27       1.0000    0.81910   0.07210   0.94140   Biso      1.000     O          -0.713962           
         O28       1.0000    0.78660   0.91540   0.89200   Biso      1.000     O          -0.685849           
         O29       1.0000    0.79260   0.90670   0.09400   Biso      1.000     O          -0.673598           
         O30       1.0000    0.64280   0.83050   0.17530   Biso      1.000     O          -0.633536           
         O31       1.0000    0.89140   0.05500   0.73930   Biso      1.000     O          -0.685219           
         O32       1.0000    0.89090   0.88880   0.71070   Biso      1.000     O          -0.645348           
         O33       1.0000    0.10680   0.23850   0.59730   Biso      1.000     O          -0.576156           
         O34       1.0000    0.11770   0.13300   0.71430   Biso      1.000     O          -0.788847           
         O35       1.0000    0.90010   0.72090   0.87920   Biso      1.000     O          -0.643204           
         O36       1.0000    0.01020   0.78120   0.99620   Biso      1.000     O          -0.670649           
         O37       1.0000    0.88750   0.58080   0.22970   Biso      1.000     O          -0.559085           
         O38       1.0000    0.86740   0.71230   0.13890   Biso      1.000     O          -0.765654           
         O39       1.0000    0.68090   0.42790   0.44140   Biso      1.000     O          -0.713962           
         O40       1.0000    0.71340   0.58460   0.39200   Biso      1.000     O          -0.685849           
         O41       1.0000    0.85720   0.66950   0.67530   Biso      1.000     O          -0.633536           
         O42       1.0000    0.60860   0.44500   0.23930   Biso      1.000     O          -0.685219           
         O43       1.0000    0.60910   0.61120   0.21070   Biso      1.000     O          -0.645348           
         O44       1.0000    0.39320   0.26150   0.09730   Biso      1.000     O          -0.576156           
         O45       1.0000    0.38230   0.36700   0.21430   Biso      1.000     O          -0.788847           
         O46       1.0000    0.59990   0.77910   0.37920   Biso      1.000     O          -0.643204           
         O47       1.0000    0.61250   0.91920   0.72970   Biso      1.000     O          -0.559085           
         O48       1.0000    0.36740   0.21230   0.36110   Biso      1.000     O          -0.765654 