
##########################################################################
#               Crystallographic Information Format file
#               Produced by PyCifRW module
#
#  This is a CIF file.  CIF has been adopted by the International
#  Union of Crystallography as the standard for data archiving and
#  transmission.
#
#  For information on this file format, follow the CIF links at
#  http://www.iucr.org
##########################################################################

data_image0

_cell_length_a                          10.86
_cell_length_b                          13.232
_cell_length_c                          14.312
_cell_angle_alpha                       90
_cell_angle_beta                        90
_cell_angle_gamma                       90.521
_symmetry_space_group_name_H-M          'P 1'
_symmetry_int_tables_number             1
loop_
  _symmetry_equiv_pos_as_xyz
         'x, y, z' 
loop_
  _atom_site_label
  _atom_site_occupancy
  _atom_site_fract_x
  _atom_site_fract_y
  _atom_site_fract_z
  _atom_site_thermal_displace_type
  _atom_site_B_iso_or_equiv
  _atom_site_type_symbol
  _atom_site_charge
         C1        1.0000    0.90370   0.37890   0.34740   Biso      1.000     C          0.5693090000000001  
         C2        1.0000    0.04250   0.56220   0.57310   Biso      1.000     C          -0.034321           
         C3        1.0000    0.09630   0.62110   0.65260   Biso      1.000     C          0.56931   
         C4        1.0000    0.96000   0.29030   0.54680   Biso      1.000     C          0.624653  
         C5        1.0000    0.42700   0.57880   0.52590   Biso      1.000     C          -0.117895           
         C6        1.0000    0.46460   0.57180   0.43360   Biso      1.000     C          -0.01113  
         C7        1.0000    0.46080   0.50680   0.59300   Biso      1.000     C          -0.023457           
         C8        1.0000    0.41370   0.65210   0.37000   Biso      1.000     C          0.580283  
         C9        1.0000    0.40960   0.52020   0.68820   Biso      1.000     C          0.612241  
         C10       1.0000    0.37790   0.99730   0.47160   Biso      1.000     C          0.028454000000000004          
         C11       1.0000    0.46390   0.05040   0.42090   Biso      1.000     C          -0.09381  
         C12       1.0000    0.41270   0.94440   0.55210   Biso      1.000     C          -0.022035           
         C13       1.0000    0.24640   0.99260   0.43320   Biso      1.000     C          0.601765  
         C14       1.0000    0.97920   0.39790   0.51780   Biso      1.000     C          -0.005089           
         C15       1.0000    0.31930   0.88860   0.61130   Biso      1.000     C          0.6059760000000001  
         C16       1.0000    0.52080   0.10210   0.01780   Biso      1.000     C          -0.005154           
         C17       1.0000    0.45750   0.93780   0.07310   Biso      1.000     C          -0.034285           
         C18       1.0000    0.40370   0.87890   0.15260   Biso      1.000     C          0.568836  
         C19       1.0000    0.54000   0.20970   0.04680   Biso      1.000     C          0.624536  
         C20       1.0000    0.92700   0.07880   0.97410   Biso      1.000     C          -0.121146           
         C21       1.0000    0.96460   0.07180   0.06640   Biso      1.000     C          -0.009727           
         C22       1.0000    0.96080   0.00680   0.90700   Biso      1.000     C          -0.017368           
         C23       1.0000    0.91370   0.15210   0.13000   Biso      1.000     C          0.579314  
         C24       1.0000    0.90960   0.02020   0.81180   Biso      1.000     C          0.610217  
         C25       1.0000    0.87790   0.49730   0.02840   Biso      1.000     C          0.028870999999999997          
         C26       1.0000    0.96390   0.55040   0.07910   Biso      1.000     C          -0.099209           
         C27       1.0000    0.91270   0.44440   0.94790   Biso      1.000     C          -0.017275           
         C28       1.0000    0.47990   0.03790   0.08770   Biso      1.000     C          -0.106608           
         C29       1.0000    0.02010   0.46210   0.58770   Biso      1.000     C          -0.107175           
         C30       1.0000    0.18070   0.61140   0.11130   Biso      1.000     C          0.606952  
         C31       1.0000    0.25360   0.50740   0.93320   Biso      1.000     C          0.602961  
         C32       1.0000    0.46000   0.79030   0.95320   Biso      1.000     C          0.62454   
         C33       1.0000    0.59630   0.12110   0.84740   Biso      1.000     C          0.5688310000000001  
         C34       1.0000    0.54250   0.06220   0.92690   Biso      1.000     C          -0.034291           
         C35       1.0000    0.47920   0.89790   0.98220   Biso      1.000     C          -0.005158           
         C36       1.0000    0.52010   0.96210   0.91230   Biso      1.000     C          -0.10660599999999999          
         C37       1.0000    0.68070   0.11140   0.38870   Biso      1.000     C          0.605979  
         C38       1.0000    0.75360   0.00740   0.56680   Biso      1.000     C          0.601763  
         C39       1.0000    0.58730   0.05560   0.44790   Biso      1.000     C          -0.022034           
         C40       1.0000    0.53610   0.94960   0.57910   Biso      1.000     C          -0.093818           
         C41       1.0000    0.62210   0.00270   0.52840   Biso      1.000     C          0.028451  
         C42       1.0000    0.59040   0.47980   0.31180   Biso      1.000     C          0.6122479999999999  
         C43       1.0000    0.58630   0.34790   0.63000   Biso      1.000     C          0.580229  
         C44       1.0000    0.53920   0.49320   0.40700   Biso      1.000     C          -0.023467           
         C45       1.0000    0.53540   0.42820   0.56640   Biso      1.000     C          -0.011118000000000001         
         C46       1.0000    0.57300   0.42120   0.47410   Biso      1.000     C          -0.117894           
         C47       1.0000    0.04000   0.70970   0.45320   Biso      1.000     C          0.624645  
         C48       1.0000    0.95750   0.43780   0.42690   Biso      1.000     C          -0.034322000000000005         
         C49       1.0000    0.02080   0.60210   0.48220   Biso      1.000     C          -0.005093           
         C50       1.0000    0.97990   0.53790   0.41230   Biso      1.000     C          -0.107175           
         C51       1.0000    0.07300   0.92120   0.02590   Biso      1.000     C          -0.121148           
         C52       1.0000    0.03540   0.92820   0.93360   Biso      1.000     C          -0.009731           
         C53       1.0000    0.03920   0.99320   0.09300   Biso      1.000     C          -0.017381           
         C54       1.0000    0.08630   0.84790   0.87000   Biso      1.000     C          0.579335  
         C55       1.0000    0.09040   0.97980   0.18820   Biso      1.000     C          0.610201  
         C56       1.0000    0.12210   0.50270   0.97160   Biso      1.000     C          0.028873000000000003          
         C57       1.0000    0.03610   0.44960   0.92090   Biso      1.000     C          -0.099214           
         C58       1.0000    0.08730   0.55560   0.05210   Biso      1.000     C          -0.017281           
         C59       1.0000    0.74640   0.49260   0.06680   Biso      1.000     C          0.602955  
         C60       1.0000    0.81930   0.38860   0.88870   Biso      1.000     C          0.606955  
         Eu1       1.0000    0.25585   0.71487   0.78223   Biso      1.000     Eu          1.305397  
         Eu2       1.0000    0.99587   0.13209   0.36158   Biso      1.000     Eu          1.456042  
         Eu3       1.0000    0.00413   0.86791   0.63842   Biso      1.000     Eu          1.4560440000000001  
         Eu4       1.0000    0.24415   0.78513   0.28223   Biso      1.000     Eu          1.306828  
         Eu5       1.0000    0.49587   0.63209   0.13842   Biso      1.000     Eu          1.4548709999999998  
         Eu6       1.0000    0.74415   0.28513   0.21777   Biso      1.000     Eu          1.305399  
         Eu7       1.0000    0.75585   0.21487   0.71777   Biso      1.000     Eu          1.306838  
         Eu8       1.0000    0.50413   0.36791   0.86158   Biso      1.000     Eu          1.454893  
         H1        1.0000    0.53270   0.93580   0.85280   Biso      1.000     H          0.1388    
         H2        1.0000    0.12200   0.86730   0.04390   Biso      1.000     H          0.133723  
         H3        1.0000    0.06080   0.41610   0.86700   Biso      1.000     H          0.13903900000000002           
         H4        1.0000    0.56080   0.91610   0.63300   Biso      1.000     H          0.138444  
         H5        1.0000    0.37800   0.63270   0.54390   Biso      1.000     H          0.13347799999999999           
         H6        1.0000    0.43920   0.08390   0.36700   Biso      1.000     H          0.138442  
         H7        1.0000    0.46730   0.06420   0.14720   Biso      1.000     H          0.138802  
         H8        1.0000    0.87800   0.13270   0.95610   Biso      1.000     H          0.133725  
         H9        1.0000    0.93920   0.58390   0.13300   Biso      1.000     H          0.139034  
         H10       1.0000    0.96730   0.56420   0.35280   Biso      1.000     H          0.138716  
         H11       1.0000    0.03270   0.43580   0.64720   Biso      1.000     H          0.138717  
         H12       1.0000    0.62200   0.36730   0.45610   Biso      1.000     H          0.13347799999999999           
         O1        1.0000    0.88860   0.41950   0.27070   Biso      1.000     O          -0.523742           
         O2        1.0000    0.70740   0.40710   0.90540   Biso      1.000     O          -0.552723           
         O3        1.0000    0.85780   0.33110   0.82560   Biso      1.000     O          -0.492098           
         O4        1.0000    0.89230   0.11090   0.78870   Biso      1.000     O          -0.517784           
         O5        1.0000    0.68220   0.57230   0.05890   Biso      1.000     O          -0.529788           
         O6        1.0000    0.89200   0.94480   0.76020   Biso      1.000     O          -0.556976           
         O7        1.0000    0.88110   0.13240   0.21410   Biso      1.000     O          -0.611915           
         O8        1.0000    0.86830   0.28800   0.36140   Biso      1.000     O          -0.626931           
         O9        1.0000    0.71430   0.41600   0.10810   Biso      1.000     O          -0.44910900000000004          
         O10       1.0000    0.09800   0.72110   0.38050   Biso      1.000     O          -0.490787           
         O11       1.0000    0.79260   0.09290   0.40540   Biso      1.000     O          -0.542801           
         O12       1.0000    0.60620   0.26200   0.59750   Biso      1.000     O          -0.502495           
         O13       1.0000    0.61890   0.36760   0.71410   Biso      1.000     O          -0.614155           
         O14       1.0000    0.60770   0.38910   0.28870   Biso      1.000     O          -0.5144529999999999           
         O15       1.0000    0.60800   0.55520   0.26020   Biso      1.000     O          -0.551262           
         O16       1.0000    0.81780   0.92770   0.55890   Biso      1.000     O          -0.530135           
         O17       1.0000    0.78570   0.08400   0.60810   Biso      1.000     O          -0.45338500000000004          
         O18       1.0000    0.64220   0.16890   0.32560   Biso      1.000     O          -0.492587           
         O19       1.0000    0.89380   0.23800   0.09750   Biso      1.000     O          -0.5051979999999999           
         O20       1.0000    0.61140   0.08050   0.77070   Biso      1.000     O          -0.523191           
         O21       1.0000    0.63170   0.21200   0.86140   Biso      1.000     O          -0.624687           
         O22       1.0000    0.98790   0.78010   0.49740   Biso      1.000     O          -0.534826           
         O23       1.0000    0.48790   0.28010   0.00260   Biso      1.000     O          -0.532654           
         O24       1.0000    0.39230   0.61090   0.71130   Biso      1.000     O          -0.51446  
         O25       1.0000    0.36830   0.78800   0.13860   Biso      1.000     O          -0.6247020000000001           
         O26       1.0000    0.40200   0.77890   0.88050   Biso      1.000     O          -0.490256           
         O27       1.0000    0.10620   0.76200   0.90250   Biso      1.000     O          -0.505233           
         O28       1.0000    0.11890   0.86760   0.78590   Biso      1.000     O          -0.6119479999999999           
         O29       1.0000    0.10770   0.88910   0.21130   Biso      1.000     O          -0.517736           
         O30       1.0000    0.10800   0.05520   0.23980   Biso      1.000     O          -0.556936           
         O31       1.0000    0.31780   0.42770   0.94110   Biso      1.000     O          -0.52981  
         O32       1.0000    0.28570   0.58400   0.89190   Biso      1.000     O          -0.4491   
         O33       1.0000    0.14220   0.66890   0.17440   Biso      1.000     O          -0.492075           
         O34       1.0000    0.29260   0.59290   0.09460   Biso      1.000     O          -0.552705           
         O35       1.0000    0.11140   0.58050   0.72930   Biso      1.000     O          -0.523737           
         O36       1.0000    0.13170   0.71200   0.63860   Biso      1.000     O          -0.626921           
         O37       1.0000    0.90200   0.27890   0.61950   Biso      1.000     O          -0.490796           
         O38       1.0000    0.01210   0.21990   0.50260   Biso      1.000     O          -0.534846           
         O39       1.0000    0.39380   0.73800   0.40250   Biso      1.000     O          -0.502542           
         O40       1.0000    0.38110   0.63240   0.28590   Biso      1.000     O          -0.614186           
         O41       1.0000    0.39200   0.44480   0.73980   Biso      1.000     O          -0.551284           
         O42       1.0000    0.18220   0.07230   0.44110   Biso      1.000     O          -0.530138           
         O43       1.0000    0.21430   0.91600   0.39190   Biso      1.000     O          -0.453413           
         O44       1.0000    0.35780   0.83110   0.67440   Biso      1.000     O          -0.492546           
         O45       1.0000    0.20740   0.90710   0.59460   Biso      1.000     O          -0.542817           
         O46       1.0000    0.38860   0.91950   0.22930   Biso      1.000     O          -0.5231979999999999           
         O47       1.0000    0.59800   0.22110   0.11950   Biso      1.000     O          -0.49025799999999997          
         O48       1.0000    0.51210   0.71990   0.99740   Biso      1.000     O          -0.532655 