
##########################################################################
#               Crystallographic Information Format file
#               Produced by PyCifRW module
#
#  This is a CIF file.  CIF has been adopted by the International
#  Union of Crystallography as the standard for data archiving and
#  transmission.
#
#  For information on this file format, follow the CIF links at
#  http://www.iucr.org
##########################################################################

data_image0

_cell_length_a                          10.833
_cell_length_b                          13.245
_cell_length_c                          14.298
_cell_angle_alpha                       90
_cell_angle_beta                        90
_cell_angle_gamma                       90.193
_symmetry_space_group_name_H-M          'P 1'
_symmetry_int_tables_number             1
loop_
  _symmetry_equiv_pos_as_xyz
         'x, y, z' 
loop_
  _atom_site_label
  _atom_site_occupancy
  _atom_site_fract_x
  _atom_site_fract_y
  _atom_site_fract_z
  _atom_site_thermal_displace_type
  _atom_site_B_iso_or_equiv
  _atom_site_type_symbol
  _atom_site_charge
         C1        1.0000    0.95430   0.06250   0.92790   Biso      1.000     C          -0.03415  
         C2        1.0000    0.03670   0.57310   0.43330   Biso      1.000     C          -0.012331           
         C3        1.0000    0.95900   0.49440   0.40790   Biso      1.000     C          -0.035344           
         C4        1.0000    0.08620   0.65400   0.37020   Biso      1.000     C          0.621462  
         C5        1.0000    0.91190   0.47890   0.31010   Biso      1.000     C          0.676287  
         C6        1.0000    0.87660   0.00400   0.52960   Biso      1.000     C          -0.017547999999999998         
         C7        1.0000    0.03500   0.04960   0.41950   Biso      1.000     C          -0.125749           
         C8        1.0000    0.91170   0.05500   0.44710   Biso      1.000     C          -0.042412           
         C9        1.0000    0.92620   0.42100   0.47340   Biso      1.000     C          -0.108096           
         C10       1.0000    0.74620   0.00450   0.56640   Biso      1.000     C          0.693476  
         C11       1.0000    0.45430   0.56250   0.57210   Biso      1.000     C          -0.03415  
         C12       1.0000    0.47690   0.60270   0.48330   Biso      1.000     C          -0.040054           
         C13       1.0000    0.40650   0.62120   0.65310   Biso      1.000     C          0.577217  
         C14       1.0000    0.45790   0.71060   0.45370   Biso      1.000     C          0.712209  
         C15       1.0000    0.42620   0.92100   0.02660   Biso      1.000     C          -0.108096           
         C16       1.0000    0.53670   0.07310   0.06670   Biso      1.000     C          -0.012331           
         C17       1.0000    0.45900   0.99440   0.09210   Biso      1.000     C          -0.035344           
         C18       1.0000    0.81920   0.11430   0.38920   Biso      1.000     C          0.684329  
         C19       1.0000    0.58620   0.15400   0.12980   Biso      1.000     C          0.621462  
         C20       1.0000    0.95790   0.21060   0.04630   Biso      1.000     C          0.712209  
         C21       1.0000    0.97690   0.10270   0.01670   Biso      1.000     C          -0.040054           
         C22       1.0000    0.47830   0.46050   0.58730   Biso      1.000     C          -0.106398           
         C23       1.0000    0.54570   0.43750   0.42790   Biso      1.000     C          -0.03415  
         C24       1.0000    0.52310   0.39730   0.51670   Biso      1.000     C          -0.040054           
         C25       1.0000    0.59350   0.37880   0.34690   Biso      1.000     C          0.577217  
         C26       1.0000    0.54210   0.28940   0.54630   Biso      1.000     C          0.712209  
         C27       1.0000    0.57380   0.07900   0.97340   Biso      1.000     C          -0.10809500000000001          
         C28       1.0000    0.46330   0.92690   0.93330   Biso      1.000     C          -0.012331           
         C29       1.0000    0.90650   0.12120   0.84690   Biso      1.000     C          0.577217  
         C30       1.0000    0.54100   0.00560   0.90790   Biso      1.000     C          -0.035344           
         C31       1.0000    0.58810   0.02110   0.81010   Biso      1.000     C          0.6762859999999999  
         C32       1.0000    0.62340   0.49600   0.02960   Biso      1.000     C          -0.017547999999999998         
         C33       1.0000    0.46500   0.45040   0.91950   Biso      1.000     C          -0.125749           
         C34       1.0000    0.58830   0.44500   0.94710   Biso      1.000     C          -0.042412           
         C35       1.0000    0.75380   0.49550   0.06640   Biso      1.000     C          0.693476  
         C36       1.0000    0.68080   0.38570   0.88920   Biso      1.000     C          0.684329  
         C37       1.0000    0.02170   0.03950   0.08730   Biso      1.000     C          -0.106397           
         C38       1.0000    0.41380   0.84600   0.87020   Biso      1.000     C          0.621462  
         C39       1.0000    0.41190   0.97890   0.18990   Biso      1.000     C          0.676287  
         C40       1.0000    0.52170   0.53950   0.41270   Biso      1.000     C          -0.106397           
         C41       1.0000    0.53500   0.54960   0.08050   Biso      1.000     C          -0.125749           
         C42       1.0000    0.37660   0.50400   0.97040   Biso      1.000     C          -0.017547999999999998         
         C43       1.0000    0.18080   0.88570   0.61080   Biso      1.000     C          0.684329  
         C44       1.0000    0.25380   0.99550   0.43360   Biso      1.000     C          0.693476  
         C45       1.0000    0.08830   0.94500   0.55290   Biso      1.000     C          -0.042412           
         C46       1.0000    0.96500   0.95040   0.58050   Biso      1.000     C          -0.125749           
         C47       1.0000    0.12340   0.99600   0.47040   Biso      1.000     C          -0.017547999999999998         
         C48       1.0000    0.08810   0.52110   0.68990   Biso      1.000     C          0.6762859999999999  
         C49       1.0000    0.91380   0.34600   0.62980   Biso      1.000     C          0.621462  
         C50       1.0000    0.96330   0.42690   0.56670   Biso      1.000     C          -0.012331           
         C51       1.0000    0.04100   0.50560   0.59210   Biso      1.000     C          -0.035344           
         C52       1.0000    0.04210   0.78940   0.95370   Biso      1.000     C          0.712209  
         C53       1.0000    0.09350   0.87880   0.15310   Biso      1.000     C          0.577217  
         C54       1.0000    0.02310   0.89730   0.98330   Biso      1.000     C          -0.040054           
         C55       1.0000    0.04570   0.93750   0.07210   Biso      1.000     C          -0.03415  
         C56       1.0000    0.97830   0.96050   0.91270   Biso      1.000     C          -0.106397           
         C57       1.0000    0.31920   0.61430   0.11080   Biso      1.000     C          0.684329  
         C58       1.0000    0.24620   0.50450   0.93360   Biso      1.000     C          0.693476  
         C59       1.0000    0.41170   0.55500   0.05290   Biso      1.000     C          -0.042412           
         C60       1.0000    0.07380   0.57900   0.52660   Biso      1.000     C          -0.10809500000000001          
         H1        1.0000    0.94070   0.91710   0.63470   Biso      1.000     H          0.13157   
         H2        1.0000    0.53600   0.56650   0.35370   Biso      1.000     H          0.14311600000000002           
         H3        1.0000    0.12190   0.63350   0.54570   Biso      1.000     H          0.135284  
         H4        1.0000    0.96400   0.93350   0.85370   Biso      1.000     H          0.14311600000000002           
         H5        1.0000    0.37810   0.86650   0.04570   Biso      1.000     H          0.135284  
         H6        1.0000    0.05930   0.08290   0.36530   Biso      1.000     H          0.13157   
         H7        1.0000    0.55930   0.58290   0.13470   Biso      1.000     H          0.13157   
         H8        1.0000    0.03600   0.06650   0.14630   Biso      1.000     H          0.14311600000000002           
         H9        1.0000    0.44070   0.41710   0.86530   Biso      1.000     H          0.13157   
         H10       1.0000    0.62190   0.13350   0.95430   Biso      1.000     H          0.135284  
         H11       1.0000    0.46400   0.43350   0.64630   Biso      1.000     H          0.14311600000000002           
         H12       1.0000    0.87810   0.36650   0.45430   Biso      1.000     H          0.135284  
         O1        1.0000    0.11930   0.63330   0.28510   Biso      1.000     O          -0.8214819999999999           
         O2        1.0000    0.10750   0.73910   0.40220   Biso      1.000     O          -0.568801           
         O3        1.0000    0.89170   0.55500   0.26010   Biso      1.000     O          -0.698346           
         O4        1.0000    0.89090   0.38840   0.28800   Biso      1.000     O          -0.6508510000000001           
         O5        1.0000    0.68000   0.92780   0.55930   Biso      1.000     O          -0.710847           
         O6        1.0000    0.85700   0.17050   0.32470   Biso      1.000     O          -0.633251           
         O7        1.0000    0.70750   0.09440   0.40610   Biso      1.000     O          -0.689868           
         O8        1.0000    0.38730   0.57970   0.72960   Biso      1.000     O          -0.550435           
         O9        1.0000    0.36660   0.71250   0.63950   Biso      1.000     O          -0.795751           
         O10       1.0000    0.39810   0.72120   0.37900   Biso      1.000     O          -0.649749           
         O11       1.0000    0.71310   0.08520   0.60870   Biso      1.000     O          -0.715796           
         O12       1.0000    0.00800   0.28200   0.00360   Biso      1.000     O          -0.6833359999999999           
         O13       1.0000    0.88730   0.07970   0.77040   Biso      1.000     O          -0.550435           
         O14       1.0000    0.86660   0.21250   0.86050   Biso      1.000     O          -0.795751           
         O15       1.0000    0.79250   0.40560   0.90610   Biso      1.000     O          -0.689868           
         O16       1.0000    0.64300   0.32950   0.82470   Biso      1.000     O          -0.633251           
         O17       1.0000    0.60190   0.27880   0.62100   Biso      1.000     O          -0.649749           
         O18       1.0000    0.49200   0.21800   0.50360   Biso      1.000     O          -0.6833359999999999           
         O19       1.0000    0.38070   0.86670   0.78510   Biso      1.000     O          -0.8214819999999999           
         O20       1.0000    0.39250   0.76090   0.90220   Biso      1.000     O          -0.5688   
         O21       1.0000    0.60830   0.94500   0.76010   Biso      1.000     O          -0.698346           
         O22       1.0000    0.60910   0.11160   0.78800   Biso      1.000     O          -0.6508520000000001           
         O23       1.0000    0.82000   0.57220   0.05930   Biso      1.000     O          -0.710847           
         O24       1.0000    0.50800   0.78200   0.49640   Biso      1.000     O          -0.6833359999999999           
         O25       1.0000    0.78690   0.41480   0.10870   Biso      1.000     O          -0.715796           
         O26       1.0000    0.89810   0.22120   0.12100   Biso      1.000     O          -0.649749           
         O27       1.0000    0.61930   0.13330   0.21490   Biso      1.000     O          -0.8214819999999999           
         O28       1.0000    0.61270   0.42030   0.27040   Biso      1.000     O          -0.550435           
         O29       1.0000    0.39170   0.05500   0.23990   Biso      1.000     O          -0.698346           
         O30       1.0000    0.63340   0.28750   0.36050   Biso      1.000     O          -0.795751           
         O31       1.0000    0.29250   0.90560   0.59390   Biso      1.000     O          -0.689868           
         O32       1.0000    0.14300   0.82950   0.67530   Biso      1.000     O          -0.633251           
         O33       1.0000    0.28690   0.91480   0.39130   Biso      1.000     O          -0.715796           
         O34       1.0000    0.32000   0.07220   0.44070   Biso      1.000     O          -0.710847           
         O35       1.0000    0.60750   0.23910   0.09780   Biso      1.000     O          -0.5688   
         O36       1.0000    0.10830   0.44500   0.73990   Biso      1.000     O          -0.698346           
         O37       1.0000    0.89250   0.26090   0.59780   Biso      1.000     O          -0.5688   
         O38       1.0000    0.88070   0.36670   0.71490   Biso      1.000     O          -0.8214819999999999           
         O39       1.0000    0.10910   0.61160   0.71200   Biso      1.000     O          -0.6508520000000001           
         O40       1.0000    0.10190   0.77880   0.87900   Biso      1.000     O          -0.649749           
         O41       1.0000    0.13340   0.78750   0.13950   Biso      1.000     O          -0.795751           
         O42       1.0000    0.11270   0.92030   0.22960   Biso      1.000     O          -0.550435           
         O43       1.0000    0.20750   0.59440   0.09390   Biso      1.000     O          -0.689868           
         O44       1.0000    0.35700   0.67050   0.17530   Biso      1.000     O          -0.633251           
         O45       1.0000    0.21310   0.58520   0.89130   Biso      1.000     O          -0.715796           
         O46       1.0000    0.18000   0.42780   0.94070   Biso      1.000     O          -0.710847           
         O47       1.0000    0.39090   0.88840   0.21200   Biso      1.000     O          -0.6508520000000001           
         O48       1.0000    0.99200   0.71800   0.99640   Biso      1.000     O          -0.6833359999999999           
         Tb1       1.0000    0.49448   0.86768   0.63836   Biso      1.000     Tb          2.2208419999999998  
         Tb2       1.0000    0.25560   0.78561   0.28203   Biso      1.000     Tb          2.0948029999999997  
         Tb3       1.0000    0.00552   0.63232   0.13836   Biso      1.000     Tb          2.2208419999999998  
         Tb4       1.0000    0.99448   0.36768   0.86164   Biso      1.000     Tb          2.2208419999999998  
         Tb5       1.0000    0.50552   0.13232   0.36164   Biso      1.000     Tb          2.2208419999999998  
         Tb6       1.0000    0.74440   0.21439   0.71797   Biso      1.000     Tb          2.0948029999999997  
         Tb7       1.0000    0.75560   0.28561   0.21797   Biso      1.000     Tb          2.0948029999999997  
         Tb8       1.0000    0.24440   0.71439   0.78203   Biso      1.000     Tb          2.0948029999999997 