
##########################################################################
#               Crystallographic Information Format file
#               Produced by PyCifRW module
#
#  This is a CIF file.  CIF has been adopted by the International
#  Union of Crystallography as the standard for data archiving and
#  transmission.
#
#  For information on this file format, follow the CIF links at
#  http://www.iucr.org
##########################################################################

data_image0

_cell_length_a                          10.8074
_cell_length_b                          13.2023
_cell_length_c                          14.2571
_cell_angle_alpha                       90
_cell_angle_beta                        90
_cell_angle_gamma                       90.402
_symmetry_space_group_name_H-M          'P 1'
_symmetry_int_tables_number             1
loop_
  _symmetry_equiv_pos_as_xyz
         'x, y, z' 
loop_
  _atom_site_label
  _atom_site_occupancy
  _atom_site_fract_x
  _atom_site_fract_y
  _atom_site_fract_z
  _atom_site_thermal_displace_type
  _atom_site_B_iso_or_equiv
  _atom_site_type_symbol
  _atom_site_charge
         C1        1.0000    0.53950   0.50710   0.09260   Biso      1.000     C          -0.036924           
         C2        1.0000    0.57410   0.57990   0.02700   Biso      1.000     C          -0.10682  
         C3        1.0000    0.46050   0.49290   0.90740   Biso      1.000     C          -0.036924           
         C4        1.0000    0.53590   0.57370   0.93360   Biso      1.000     C          -0.013909           
         C5        1.0000    0.95670   0.71090   0.95360   Biso      1.000     C          0.712918  
         C6        1.0000    0.74660   0.50620   0.43250   Biso      1.000     C          0.690539  
         C7        1.0000    0.87670   0.50250   0.47130   Biso      1.000     C          -0.015612000000000001         
         C8        1.0000    0.91200   0.55610   0.55200   Biso      1.000     C          -0.040179           
         C9        1.0000    0.90310   0.62090   0.15290   Biso      1.000     C          0.5843149999999999  
         C10       1.0000    0.97690   0.60260   0.98320   Biso      1.000     C          -0.038324000000000004         
         C11       1.0000    0.81930   0.61240   0.61140   Biso      1.000     C          0.680178  
         C12       1.0000    0.95670   0.56310   0.07300   Biso      1.000     C          -0.038370999999999995         
         C13       1.0000    0.96350   0.44800   0.42040   Biso      1.000     C          -0.120242           
         C14       1.0000    0.41090   0.47920   0.80980   Biso      1.000     C          0.685156  
         C15       1.0000    0.91330   0.84570   0.36990   Biso      1.000     C          0.621807  
         C16       1.0000    0.08910   0.02080   0.30980   Biso      1.000     C          0.6851550000000001  
         C17       1.0000    0.92590   0.92010   0.52700   Biso      1.000     C          -0.106821           
         C18       1.0000    0.03950   0.00710   0.40740   Biso      1.000     C          -0.036924           
         C19       1.0000    0.96410   0.92630   0.43360   Biso      1.000     C          -0.013909           
         C20       1.0000    0.45670   0.21090   0.54640   Biso      1.000     C          0.712918  
         C21       1.0000    0.24660   0.00620   0.06750   Biso      1.000     C          0.690539  
         C22       1.0000    0.37670   0.00250   0.02870   Biso      1.000     C          -0.015612000000000001         
         C23       1.0000    0.41200   0.05610   0.94800   Biso      1.000     C          -0.040179           
         C24       1.0000    0.40310   0.12090   0.34710   Biso      1.000     C          0.5843149999999999  
         C25       1.0000    0.47690   0.10260   0.51680   Biso      1.000     C          -0.038324000000000004         
         C26       1.0000    0.31930   0.11240   0.88860   Biso      1.000     C          0.680178  
         C27       1.0000    0.45670   0.06310   0.42700   Biso      1.000     C          -0.038370999999999995         
         C28       1.0000    0.98130   0.46070   0.08790   Biso      1.000     C          -0.105379           
         C29       1.0000    0.51870   0.03930   0.58790   Biso      1.000     C          -0.105379           
         C30       1.0000    0.58670   0.65430   0.86990   Biso      1.000     C          0.621807  
         C31       1.0000    0.53650   0.05200   0.92040   Biso      1.000     C          -0.120242           
         C32       1.0000    0.03590   0.07370   0.56640   Biso      1.000     C          -0.013912           
         C33       1.0000    0.96050   0.99290   0.59260   Biso      1.000     C          -0.036920999999999995         
         C34       1.0000    0.07410   0.07990   0.47300   Biso      1.000     C          -0.10681800000000001          
         C35       1.0000    0.91090   0.97920   0.69020   Biso      1.000     C          0.685156  
         C36       1.0000    0.01870   0.53930   0.91210   Biso      1.000     C          -0.105379           
         C37       1.0000    0.08670   0.15430   0.63010   Biso      1.000     C          0.621807  
         C38       1.0000    0.03650   0.55200   0.57960   Biso      1.000     C          -0.120242           
         C39       1.0000    0.04330   0.43690   0.92700   Biso      1.000     C          -0.038372           
         C40       1.0000    0.18070   0.38760   0.38860   Biso      1.000     C          0.680179  
         C41       1.0000    0.02310   0.39740   0.01680   Biso      1.000     C          -0.038323           
         C42       1.0000    0.09690   0.37910   0.84710   Biso      1.000     C          0.5843149999999999  
         C43       1.0000    0.08800   0.44390   0.44800   Biso      1.000     C          -0.040179           
         C44       1.0000    0.12330   0.49750   0.52870   Biso      1.000     C          -0.015612000000000001         
         C45       1.0000    0.25340   0.49380   0.56750   Biso      1.000     C          0.690539  
         C46       1.0000    0.04330   0.28910   0.04640   Biso      1.000     C          0.712918  
         C47       1.0000    0.46410   0.42630   0.06640   Biso      1.000     C          -0.013909999999999999         
         C48       1.0000    0.42590   0.42010   0.97300   Biso      1.000     C          -0.10681900000000001          
         C49       1.0000    0.58910   0.52080   0.19020   Biso      1.000     C          0.685156  
         C50       1.0000    0.48130   0.96070   0.41210   Biso      1.000     C          -0.105379           
         C51       1.0000    0.54330   0.78910   0.45360   Biso      1.000     C          0.712918  
         C52       1.0000    0.75340   0.99380   0.93250   Biso      1.000     C          0.690539  
         C53       1.0000    0.62330   0.99750   0.97130   Biso      1.000     C          -0.015612000000000001         
         C54       1.0000    0.58800   0.94390   0.05200   Biso      1.000     C          -0.040179           
         C55       1.0000    0.59690   0.87910   0.65290   Biso      1.000     C          0.5843149999999999  
         C56       1.0000    0.52310   0.89740   0.48320   Biso      1.000     C          -0.038323           
         C57       1.0000    0.68070   0.88760   0.11140   Biso      1.000     C          0.680178  
         C58       1.0000    0.54330   0.93690   0.57300   Biso      1.000     C          -0.038370999999999995         
         C59       1.0000    0.46350   0.94800   0.07960   Biso      1.000     C          -0.120242           
         C60       1.0000    0.41330   0.34570   0.13010   Biso      1.000     C          0.621807  
         Dy1       1.0000    0.75541   0.78586   0.78202   Biso      1.000     Dy          2.089207  
         Dy2       1.0000    0.00627   0.13233   0.86178   Biso      1.000     Dy          2.224976  
         Dy3       1.0000    0.99373   0.86767   0.13822   Biso      1.000     Dy          2.224975  
         Dy4       1.0000    0.74459   0.71414   0.28202   Biso      1.000     Dy          2.089207  
         Dy5       1.0000    0.50627   0.63233   0.63822   Biso      1.000     Dy          2.224975  
         Dy6       1.0000    0.24459   0.21414   0.21798   Biso      1.000     Dy          2.089208  
         Dy7       1.0000    0.25541   0.28586   0.71798   Biso      1.000     Dy          2.089207  
         Dy8       1.0000    0.49373   0.36767   0.36178   Biso      1.000     Dy          2.224976  
         H1        1.0000    0.12390   0.13390   0.45420   Biso      1.000     H          0.13541   
         H2        1.0000    0.56150   0.08650   0.86670   Biso      1.000     H          0.132528  
         H3        1.0000    0.53070   0.06610   0.64760   Biso      1.000     H          0.14294600000000002           
         H4        1.0000    0.03070   0.56610   0.85240   Biso      1.000     H          0.14294600000000002           
         H5        1.0000    0.93850   0.41350   0.36670   Biso      1.000     H          0.132528  
         H6        1.0000    0.96930   0.43390   0.14760   Biso      1.000     H          0.14294600000000002           
         H7        1.0000    0.87610   0.86610   0.54580   Biso      1.000     H          0.13541   
         H8        1.0000    0.43850   0.91350   0.13330   Biso      1.000     H          0.132528  
         H9        1.0000    0.46930   0.93390   0.35240   Biso      1.000     H          0.14294600000000002           
         H10       1.0000    0.37610   0.36610   0.95420   Biso      1.000     H          0.13541   
         H11       1.0000    0.62390   0.63390   0.04580   Biso      1.000     H          0.13541   
         H12       1.0000    0.06150   0.58650   0.63330   Biso      1.000     H          0.132528  
         O1        1.0000    0.60670   0.44510   0.24050   Biso      1.000     O          -0.70023  
         O2        1.0000    0.39260   0.25990   0.09820   Biso      1.000     O          -0.572191           
         O3        1.0000    0.38630   0.07960   0.26960   Biso      1.000     O          -0.558578           
         O4        1.0000    0.36600   0.21230   0.35990   Biso      1.000     O          -0.79379  
         O5        1.0000    0.35740   0.17090   0.82410   Biso      1.000     O          -0.638442           
         O6        1.0000    0.50620   0.28280   0.50330   Biso      1.000     O          -0.684791           
         O7        1.0000    0.20670   0.09430   0.90640   Biso      1.000     O          -0.6889430000000001           
         O8        1.0000    0.39710   0.22110   0.62080   Biso      1.000     O          -0.647604           
         O9        1.0000    0.17930   0.92710   0.05880   Biso      1.000     O          -0.733757           
         O10       1.0000    0.60850   0.61170   0.21200   Biso      1.000     O          -0.655084           
         O11       1.0000    0.10740   0.24010   0.59820   Biso      1.000     O          -0.57219  
         O12       1.0000    0.28710   0.41500   0.60870   Biso      1.000     O          -0.691446           
         O13       1.0000    0.29330   0.40570   0.40640   Biso      1.000     O          -0.688944           
         O14       1.0000    0.13400   0.28770   0.85990   Biso      1.000     O          -0.79379  
         O15       1.0000    0.99380   0.21720   0.00330   Biso      1.000     O          -0.684791           
         O16       1.0000    0.14260   0.32910   0.32410   Biso      1.000     O          -0.638442           
         O17       1.0000    0.32070   0.57290   0.55880   Biso      1.000     O          -0.733757           
         O18       1.0000    0.11370   0.42040   0.76960   Biso      1.000     O          -0.558578           
         O19       1.0000    0.21290   0.08500   0.10870   Biso      1.000     O          -0.691447           
         O20       1.0000    0.89330   0.05490   0.74050   Biso      1.000     O          -0.70023  
         O21       1.0000    0.10290   0.27890   0.12080   Biso      1.000     O          -0.647604           
         O22       1.0000    0.38010   0.36650   0.21510   Biso      1.000     O          -0.819364           
         O23       1.0000    0.88010   0.86650   0.28490   Biso      1.000     O          -0.819364           
         O24       1.0000    0.86600   0.71230   0.14010   Biso      1.000     O          -0.79379  
         O25       1.0000    0.89710   0.72110   0.87920   Biso      1.000     O          -0.647604           
         O26       1.0000    0.89150   0.88830   0.71200   Biso      1.000     O          -0.655084           
         O27       1.0000    0.78710   0.91500   0.89130   Biso      1.000     O          -0.691446           
         O28       1.0000    0.79330   0.90570   0.09360   Biso      1.000     O          -0.688944           
         O29       1.0000    0.63400   0.78770   0.64010   Biso      1.000     O          -0.79379  
         O30       1.0000    0.49380   0.71720   0.49670   Biso      1.000     O          -0.68479  
         O31       1.0000    0.64260   0.82910   0.17590   Biso      1.000     O          -0.638442           
         O32       1.0000    0.82070   0.07290   0.94120   Biso      1.000     O          -0.733757           
         O33       1.0000    0.61370   0.92040   0.73040   Biso      1.000     O          -0.558578           
         O34       1.0000    0.60740   0.74010   0.90180   Biso      1.000     O          -0.57219  
         O35       1.0000    0.39330   0.55490   0.75950   Biso      1.000     O          -0.70023  
         O36       1.0000    0.60290   0.77890   0.37920   Biso      1.000     O          -0.647604           
         O37       1.0000    0.39150   0.38830   0.78800   Biso      1.000     O          -0.655084           
         O38       1.0000    0.61990   0.63350   0.78490   Biso      1.000     O          -0.819363           
         O39       1.0000    0.71290   0.58500   0.39130   Biso      1.000     O          -0.691446           
         O40       1.0000    0.70670   0.59430   0.59360   Biso      1.000     O          -0.6889430000000001           
         O41       1.0000    0.00620   0.78280   0.99670   Biso      1.000     O          -0.68479  
         O42       1.0000    0.85740   0.67090   0.67590   Biso      1.000     O          -0.638442           
         O43       1.0000    0.67930   0.42710   0.44120   Biso      1.000     O          -0.733757           
         O44       1.0000    0.88630   0.57960   0.23040   Biso      1.000     O          -0.558578           
         O45       1.0000    0.89260   0.75990   0.40180   Biso      1.000     O          -0.57219  
         O46       1.0000    0.10670   0.94510   0.25950   Biso      1.000     O          -0.70023  
         O47       1.0000    0.10850   0.11170   0.28800   Biso      1.000     O          -0.655084           
         O48       1.0000    0.11990   0.13350   0.71510   Biso      1.000     O          -0.819364 