
##########################################################################
#               Crystallographic Information Format file
#               Produced by PyCifRW module
#
#  This is a CIF file.  CIF has been adopted by the International
#  Union of Crystallography as the standard for data archiving and
#  transmission.
#
#  For information on this file format, follow the CIF links at
#  http://www.iucr.org
##########################################################################

data_image0

_cell_length_a                          10.788
_cell_length_b                          13.17
_cell_length_c                          14.223
_cell_angle_alpha                       90
_cell_angle_beta                        90
_cell_angle_gamma                       90.402
_symmetry_space_group_name_H-M          'P 1'
_symmetry_int_tables_number             1
loop_
  _symmetry_equiv_pos_as_xyz
         'x, y, z' 
loop_
  _atom_site_label
  _atom_site_occupancy
  _atom_site_fract_x
  _atom_site_fract_y
  _atom_site_fract_z
  _atom_site_thermal_displace_type
  _atom_site_B_iso_or_equiv
  _atom_site_type_symbol
  _atom_site_charge
         C1        1.0000    0.37650   0.00250   0.52880   Biso      1.000     C          -0.015811000000000002         
         C2        1.0000    0.91090   0.97930   0.19040   Biso      1.000     C          0.684871  
         C3        1.0000    0.08680   0.15450   0.13080   Biso      1.000     C          0.620121  
         C4        1.0000    0.91240   0.55640   0.05210   Biso      1.000     C          -0.039620999999999996         
         C5        1.0000    0.87650   0.50250   0.97120   Biso      1.000     C          -0.015811000000000002         
         C6        1.0000    0.03620   0.55300   0.07960   Biso      1.000     C          -0.121716           
         C7        1.0000    0.74570   0.50630   0.93240   Biso      1.000     C          0.692546  
         C8        1.0000    0.07410   0.08000   0.97290   Biso      1.000     C          -0.105294           
         C9        1.0000    0.81930   0.61270   0.11160   Biso      1.000     C          0.68285   
         C10       1.0000    0.97620   0.60310   0.48300   Biso      1.000     C          -0.038748000000000005         
         C11       1.0000    0.01860   0.53930   0.41180   Biso      1.000     C          -0.104822           
         C12       1.0000    0.90210   0.62070   0.65280   Biso      1.000     C          0.580412  
         C13       1.0000    0.95550   0.71110   0.45270   Biso      1.000     C          0.715382  
         C14       1.0000    0.46020   0.49270   0.40690   Biso      1.000     C          -0.036978           
         C15       1.0000    0.53640   0.57400   0.43330   Biso      1.000     C          -0.012709999999999999         
         C16       1.0000    0.95710   0.56270   0.57280   Biso      1.000     C          -0.036924           
         C17       1.0000    0.57410   0.58000   0.52710   Biso      1.000     C          -0.105295           
         C18       1.0000    0.03640   0.07400   0.06670   Biso      1.000     C          -0.012708           
         C19       1.0000    0.45550   0.21110   0.04730   Biso      1.000     C          0.715389  
         C20       1.0000    0.53980   0.50730   0.59310   Biso      1.000     C          -0.036979000000000005         
         C21       1.0000    0.46360   0.42600   0.56670   Biso      1.000     C          -0.012709           
         C22       1.0000    0.42590   0.42000   0.47290   Biso      1.000     C          -0.105294           
         C23       1.0000    0.58910   0.52070   0.69040   Biso      1.000     C          0.684872  
         C24       1.0000    0.41320   0.34550   0.63080   Biso      1.000     C          0.620119  
         C25       1.0000    0.41240   0.05640   0.44790   Biso      1.000     C          -0.039619999999999995         
         C26       1.0000    0.96020   0.99270   0.09310   Biso      1.000     C          -0.036975           
         C27       1.0000    0.98140   0.46070   0.58820   Biso      1.000     C          -0.104823           
         C28       1.0000    0.24570   0.00630   0.56760   Biso      1.000     C          0.6925479999999999  
         C29       1.0000    0.31930   0.11270   0.38840   Biso      1.000     C          0.682845  
         C30       1.0000    0.45710   0.06270   0.92720   Biso      1.000     C          -0.036932           
         C31       1.0000    0.47620   0.10310   0.01700   Biso      1.000     C          -0.038743           
         C32       1.0000    0.51860   0.03930   0.08820   Biso      1.000     C          -0.104823           
         C33       1.0000    0.40210   0.12070   0.84720   Biso      1.000     C          0.580413  
         C34       1.0000    0.53620   0.05300   0.42040   Biso      1.000     C          -0.12171199999999999          
         C35       1.0000    0.41090   0.47930   0.30960   Biso      1.000     C          0.684871  
         C36       1.0000    0.58680   0.65450   0.36920   Biso      1.000     C          0.620119  
         C37       1.0000    0.58760   0.94360   0.55210   Biso      1.000     C          -0.039622000000000004         
         C38       1.0000    0.08760   0.44360   0.94790   Biso      1.000     C          -0.039622000000000004         
         C39       1.0000    0.12350   0.49750   0.02880   Biso      1.000     C          -0.015813999999999998         
         C40       1.0000    0.96380   0.44700   0.92040   Biso      1.000     C          -0.12171400000000002          
         C41       1.0000    0.25430   0.49370   0.06760   Biso      1.000     C          0.6925439999999999  
         C42       1.0000    0.18070   0.38730   0.88840   Biso      1.000     C          0.68285   
         C43       1.0000    0.04290   0.43730   0.42720   Biso      1.000     C          -0.036927999999999996         
         C44       1.0000    0.02380   0.39690   0.51700   Biso      1.000     C          -0.038744           
         C45       1.0000    0.04450   0.28890   0.54730   Biso      1.000     C          0.715381  
         C46       1.0000    0.91320   0.84550   0.86920   Biso      1.000     C          0.6201180000000001  
         C47       1.0000    0.08910   0.02070   0.80960   Biso      1.000     C          0.68487   
         C48       1.0000    0.92590   0.92000   0.02710   Biso      1.000     C          -0.105294           
         C49       1.0000    0.09790   0.37930   0.34720   Biso      1.000     C          0.580414  
         C50       1.0000    0.03980   0.00730   0.90690   Biso      1.000     C          -0.036975           
         C51       1.0000    0.54450   0.78890   0.95270   Biso      1.000     C          0.715382  
         C52       1.0000    0.62350   0.99750   0.47120   Biso      1.000     C          -0.015811000000000002         
         C53       1.0000    0.46380   0.94700   0.57960   Biso      1.000     C          -0.12171300000000002          
         C54       1.0000    0.59790   0.87930   0.15280   Biso      1.000     C          0.580412  
         C55       1.0000    0.75430   0.99370   0.43240   Biso      1.000     C          0.692547  
         C56       1.0000    0.68070   0.88730   0.61160   Biso      1.000     C          0.682851  
         C57       1.0000    0.54290   0.93730   0.07280   Biso      1.000     C          -0.036927           
         C58       1.0000    0.52380   0.89690   0.98300   Biso      1.000     C          -0.038749           
         C59       1.0000    0.48140   0.96070   0.91180   Biso      1.000     C          -0.104822           
         C60       1.0000    0.96360   0.92600   0.93330   Biso      1.000     C          -0.012704           
         H1        1.0000    0.87630   0.86570   0.04590   Biso      1.000     H          0.134934  
         H2        1.0000    0.43870   0.91150   0.63290   Biso      1.000     H          0.132589  
         H3        1.0000    0.62370   0.63430   0.54590   Biso      1.000     H          0.134932  
         H4        1.0000    0.03100   0.56600   0.35200   Biso      1.000     H          0.143403  
         H5        1.0000    0.06130   0.58850   0.13290   Biso      1.000     H          0.132589  
         H6        1.0000    0.12370   0.13430   0.95410   Biso      1.000     H          0.134934  
         H7        1.0000    0.53100   0.06600   0.14800   Biso      1.000     H          0.143404  
         H8        1.0000    0.56130   0.08850   0.36710   Biso      1.000     H          0.13259   
         H9        1.0000    0.96900   0.43400   0.64800   Biso      1.000     H          0.143403  
         H10       1.0000    0.93870   0.41150   0.86710   Biso      1.000     H          0.132589  
         H11       1.0000    0.46900   0.93400   0.85200   Biso      1.000     H          0.143402  
         H12       1.0000    0.37630   0.36570   0.45410   Biso      1.000     H          0.134932  
         Ho1       1.0000    0.74470   0.71409   0.78191   Biso      1.000     Ho          2.087005  
         Ho2       1.0000    0.49327   0.36759   0.86193   Biso      1.000     Ho          2.229323  
         Ho3       1.0000    0.24470   0.21409   0.71809   Biso      1.000     Ho          2.087005  
         Ho4       1.0000    0.00673   0.13241   0.36193   Biso      1.000     Ho          2.229321  
         Ho5       1.0000    0.25529   0.28591   0.21809   Biso      1.000     Ho          2.087046  
         Ho6       1.0000    0.50673   0.63241   0.13807   Biso      1.000     Ho          2.229324  
         Ho7       1.0000    0.75530   0.78591   0.28191   Biso      1.000     Ho          2.087005  
         Ho8       1.0000    0.99327   0.86759   0.63807   Biso      1.000     Ho          2.229323  
         O1        1.0000    0.35750   0.17100   0.32380   Biso      1.000     O          -0.638279           
         O2        1.0000    0.36570   0.21250   0.85960   Biso      1.000     O          -0.793315           
         O3        1.0000    0.38520   0.07920   0.76900   Biso      1.000     O          -0.559268           
         O4        1.0000    0.50440   0.28390   0.00360   Biso      1.000     O          -0.691451           
         O5        1.0000    0.89090   0.88780   0.21210   Biso      1.000     O          -0.657205           
         O6        1.0000    0.89330   0.05510   0.24110   Biso      1.000     O          -0.6988800000000001           
         O7        1.0000    0.20660   0.09470   0.40630   Biso      1.000     O          -0.6920890000000001           
         O8        1.0000    0.11980   0.13370   0.21580   Biso      1.000     O          -0.817206           
         O9        1.0000    0.39600   0.22060   0.12140   Biso      1.000     O          -0.642385           
         O10       1.0000    0.17850   0.92670   0.55910   Biso      1.000     O          -0.738891           
         O11       1.0000    0.60910   0.61220   0.71210   Biso      1.000     O          -0.657208           
         O12       1.0000    0.39260   0.25900   0.59860   Biso      1.000     O          -0.574526           
         O13       1.0000    0.38020   0.36630   0.71580   Biso      1.000     O          -0.817199           
         O14       1.0000    0.10740   0.24100   0.09860   Biso      1.000     O          -0.5745319999999999           
         O15       1.0000    0.60670   0.44490   0.74110   Biso      1.000     O          -0.698882           
         O16       1.0000    0.10400   0.27940   0.62140   Biso      1.000     O          -0.642357           
         O17       1.0000    0.99560   0.21610   0.50360   Biso      1.000     O          -0.691447           
         O18       1.0000    0.11480   0.42080   0.26900   Biso      1.000     O          -0.559277           
         O19       1.0000    0.13430   0.28750   0.35960   Biso      1.000     O          -0.793313           
         O20       1.0000    0.14250   0.32900   0.82380   Biso      1.000     O          -0.638296           
         O21       1.0000    0.29340   0.40530   0.90630   Biso      1.000     O          -0.692084           
         O22       1.0000    0.21300   0.08470   0.60920   Biso      1.000     O          -0.687344           
         O23       1.0000    0.71300   0.58470   0.89080   Biso      1.000     O          -0.687344           
         O24       1.0000    0.85750   0.67100   0.17620   Biso      1.000     O          -0.638296           
         O25       1.0000    0.70660   0.59470   0.09370   Biso      1.000     O          -0.692084           
         O26       1.0000    0.89260   0.75900   0.90140   Biso      1.000     O          -0.5745239999999999           
         O27       1.0000    0.88020   0.86630   0.78420   Biso      1.000     O          -0.817198           
         O28       1.0000    0.10910   0.11220   0.78790   Biso      1.000     O          -0.6572060000000001           
         O29       1.0000    0.10670   0.94490   0.75890   Biso      1.000     O          -0.6988800000000001           
         O30       1.0000    0.60400   0.77940   0.87860   Biso      1.000     O          -0.642359           
         O31       1.0000    0.49560   0.71610   0.99640   Biso      1.000     O          -0.691448           
         O32       1.0000    0.61480   0.92080   0.23100   Biso      1.000     O          -0.559267           
         O33       1.0000    0.63430   0.78750   0.14040   Biso      1.000     O          -0.7933140000000001           
         O34       1.0000    0.64250   0.82900   0.67620   Biso      1.000     O          -0.6382939999999999           
         O35       1.0000    0.79340   0.90530   0.59370   Biso      1.000     O          -0.692086           
         O36       1.0000    0.82150   0.07330   0.44090   Biso      1.000     O          -0.738891           
         O37       1.0000    0.78700   0.91530   0.39080   Biso      1.000     O          -0.687344           
         O38       1.0000    0.60740   0.74100   0.40140   Biso      1.000     O          -0.574526           
         O39       1.0000    0.61980   0.63370   0.28420   Biso      1.000     O          -0.817199           
         O40       1.0000    0.39090   0.38780   0.28790   Biso      1.000     O          -0.657208           
         O41       1.0000    0.39330   0.55510   0.25890   Biso      1.000     O          -0.69889  
         O42       1.0000    0.89600   0.72060   0.37860   Biso      1.000     O          -0.642358           
         O43       1.0000    0.00440   0.78390   0.49640   Biso      1.000     O          -0.691448           
         O44       1.0000    0.88520   0.57920   0.73100   Biso      1.000     O          -0.559266           
         O45       1.0000    0.86570   0.71250   0.64040   Biso      1.000     O          -0.793313           
         O46       1.0000    0.32150   0.57330   0.05910   Biso      1.000     O          -0.7388899999999999           
         O47       1.0000    0.67850   0.42670   0.94090   Biso      1.000     O          -0.7388899999999999           
         O48       1.0000    0.28700   0.41530   0.10920   Biso      1.000     O          -0.687336 