
##########################################################################
#               Crystallographic Information Format file
#               Produced by PyCifRW module
#
#  This is a CIF file.  CIF has been adopted by the International
#  Union of Crystallography as the standard for data archiving and
#  transmission.
#
#  For information on this file format, follow the CIF links at
#  http://www.iucr.org
##########################################################################

data_image0

_cell_length_a                          16.2295
_cell_length_b                          16.2295
_cell_length_c                          28.0346
_cell_angle_alpha                       80.1219
_cell_angle_beta                        80.1219
_cell_angle_gamma                       62.9324
_symmetry_space_group_name_H-M          'P 1'
_symmetry_int_tables_number             1
loop_
  _symmetry_equiv_pos_as_xyz
         'x, y, z' 
loop_
  _atom_site_label
  _atom_site_occupancy
  _atom_site_fract_x
  _atom_site_fract_y
  _atom_site_fract_z
  _atom_site_thermal_displace_type
  _atom_site_B_iso_or_equiv
  _atom_site_type_symbol
  _atom_site_charge
         C1        1.0000    0.20280   0.58700   0.73020   Biso      1.000     C          -0.163155           
         C2        1.0000    0.93119   0.42099   0.57705   Biso      1.000     C          0.665374  
         C3        1.0000    0.88952   0.38312   0.62180   Biso      1.000     C          -0.044634           
         C4        1.0000    0.83300   0.34180   0.61690   Biso      1.000     C          -0.096962           
         C5        1.0000    0.79100   0.31000   0.65850   Biso      1.000     C          -0.153711           
         C6        1.0000    0.80630   0.31790   0.70460   Biso      1.000     C          0.12853299999999998           
         C7        1.0000    0.86120   0.36200   0.70850   Biso      1.000     C          -0.158842           
         C8        1.0000    0.90240   0.39400   0.66713   Biso      1.000     C          -0.092248           
         C9        1.0000    0.45880   0.01460   0.49740   Biso      1.000     C          -0.150168           
         C10       1.0000    0.76630   0.28230   0.74980   Biso      1.000     C          -0.150082           
         C11       1.0000    0.59200   0.18400   0.14630   Biso      1.000     C          -0.017231           
         C12       1.0000    0.56940   0.16480   0.19570   Biso      1.000     C          -0.08808200000000001          
         C13       1.0000    0.58700   0.20280   0.23020   Biso      1.000     C          -0.163145           
         C14       1.0000    0.62500   0.26620   0.21670   Biso      1.000     C          0.130607  
         C15       1.0000    0.64530   0.28810   0.16740   Biso      1.000     C          -0.159755           
         C16       1.0000    0.62800   0.24540   0.13350   Biso      1.000     C          -0.102007           
         C17       1.0000    0.65280   0.29860   0.25360   Biso      1.000     C          -0.147402           
         C18       1.0000    0.57870   0.14070   0.10790   Biso      1.000     C          0.593481  
         C19       1.0000    0.38036   0.16376   0.01760   Biso      1.000     C          0.6582720000000001  
         C20       1.0000    0.32120   0.25520   0.53460   Biso      1.000     C          -0.080307           
         C21       1.0000    0.38330   0.10710   0.50490   Biso      1.000     C          0.143599  
         C22       1.0000    0.65820   0.16700   0.88310   Biso      1.000     C          -0.096961           
         C23       1.0000    0.69000   0.20900   0.84150   Biso      1.000     C          -0.153711           
         C24       1.0000    0.63800   0.13880   0.79150   Biso      1.000     C          -0.158842           
         C25       1.0000    0.60600   0.09760   0.83287   Biso      1.000     C          -0.092254           
         C26       1.0000    0.71770   0.23370   0.75020   Biso      1.000     C          -0.15006  
         C27       1.0000    0.14070   0.57870   0.60790   Biso      1.000     C          0.593484  
         C28       1.0000    0.18400   0.59200   0.64630   Biso      1.000     C          -0.017233000000000002         
         C29       1.0000    0.39110   0.16910   0.53000   Biso      1.000     C          -0.150544           
         C30       1.0000    0.16480   0.56940   0.69570   Biso      1.000     C          -0.088068           
         C31       1.0000    0.28810   0.64530   0.66740   Biso      1.000     C          -0.159754           
         C32       1.0000    0.24540   0.62800   0.63350   Biso      1.000     C          -0.102005           
         C33       1.0000    0.29860   0.65280   0.75360   Biso      1.000     C          -0.147404           
         C34       1.0000    0.16376   0.38036   0.51760   Biso      1.000     C          0.658277  
         C35       1.0000    0.23900   0.28520   0.51430   Biso      1.000     C          -0.031514           
         C36       1.0000    0.22970   0.22350   0.48880   Biso      1.000     C          -0.11858699999999998          
         C37       1.0000    0.30260   0.13320   0.48640   Biso      1.000     C          -0.155675           
         C38       1.0000    0.26620   0.62500   0.71670   Biso      1.000     C          0.13061099999999998           
         C39       1.0000    0.61688   0.11048   0.87820   Biso      1.000     C          -0.044627           
         C40       1.0000    0.28520   0.23900   0.01430   Biso      1.000     C          -0.031521           
         C41       1.0000    0.13320   0.30260   0.98640   Biso      1.000     C          -0.155696           
         C42       1.0000    0.83624   0.61964   0.48240   Biso      1.000     C          0.658277  
         C43       1.0000    0.76100   0.71480   0.48570   Biso      1.000     C          -0.031519           
         C44       1.0000    0.77030   0.77650   0.51120   Biso      1.000     C          -0.11858199999999999          
         C45       1.0000    0.69740   0.86680   0.51360   Biso      1.000     C          -0.155698           
         C46       1.0000    0.61670   0.89290   0.49510   Biso      1.000     C          0.14361   
         C47       1.0000    0.60890   0.83090   0.47000   Biso      1.000     C          -0.150565           
         C48       1.0000    0.67880   0.74480   0.46540   Biso      1.000     C          -0.08028400000000001          
         C49       1.0000    0.70140   0.34720   0.24640   Biso      1.000     C          -0.147349           
         C50       1.0000    0.54120   0.98540   0.50260   Biso      1.000     C          -0.150053           
         C51       1.0000    0.11048   0.61688   0.37820   Biso      1.000     C          -0.044632           
         C52       1.0000    0.16700   0.65820   0.38310   Biso      1.000     C          -0.096961           
         C53       1.0000    0.20900   0.69000   0.34150   Biso      1.000     C          -0.15370999999999999          
         C54       1.0000    0.19370   0.68210   0.29540   Biso      1.000     C          0.128531  
         C55       1.0000    0.13880   0.63800   0.29150   Biso      1.000     C          -0.15884  
         C56       1.0000    0.09760   0.60600   0.33287   Biso      1.000     C          -0.092248           
         C57       1.0000    0.23370   0.71770   0.25020   Biso      1.000     C          -0.150077           
         C58       1.0000    0.06881   0.57901   0.42295   Biso      1.000     C          0.665374  
         C59       1.0000    0.22350   0.22970   0.98880   Biso      1.000     C          -0.11858199999999999          
         C60       1.0000    0.75460   0.37200   0.36650   Biso      1.000     C          -0.102031           
         C61       1.0000    0.73380   0.37500   0.28330   Biso      1.000     C          0.130604  
         C62       1.0000    0.10710   0.38330   0.00490   Biso      1.000     C          0.143624  
         C63       1.0000    0.16910   0.39110   0.03000   Biso      1.000     C          -0.150566           
         C64       1.0000    0.25520   0.32120   0.03460   Biso      1.000     C          -0.080282           
         C65       1.0000    0.01460   0.45880   0.99740   Biso      1.000     C          -0.150171           
         C66       1.0000    0.42099   0.93119   0.07705   Biso      1.000     C          0.6653789999999999  
         C67       1.0000    0.38312   0.88952   0.12180   Biso      1.000     C          -0.044639           
         C68       1.0000    0.34180   0.83300   0.11690   Biso      1.000     C          -0.096959           
         C69       1.0000    0.71190   0.35470   0.33260   Biso      1.000     C          -0.159751           
         C70       1.0000    0.31000   0.79100   0.15850   Biso      1.000     C          -0.15370999999999999          
         C71       1.0000    0.36200   0.86120   0.20850   Biso      1.000     C          -0.15884  
         C72       1.0000    0.39400   0.90240   0.16713   Biso      1.000     C          -0.09224600000000001          
         C73       1.0000    0.28230   0.76630   0.24980   Biso      1.000     C          -0.150062           
         C74       1.0000    0.85930   0.42130   0.39210   Biso      1.000     C          0.593482  
         C75       1.0000    0.81600   0.40800   0.35370   Biso      1.000     C          -0.017208           
         C76       1.0000    0.83520   0.43060   0.30430   Biso      1.000     C          -0.08808200000000001          
         C77       1.0000    0.79720   0.41300   0.26980   Biso      1.000     C          -0.163145           
         C78       1.0000    0.31790   0.80630   0.20460   Biso      1.000     C          0.12853299999999998           
         C79       1.0000    0.57901   0.06881   0.92295   Biso      1.000     C          0.665366  
         C80       1.0000    0.68210   0.19370   0.79540   Biso      1.000     C          0.12853   
         C81       1.0000    0.74480   0.67880   0.96540   Biso      1.000     C          -0.080307           
         C82       1.0000    0.98540   0.54120   0.00260   Biso      1.000     C          -0.150051           
         C83       1.0000    0.42130   0.85930   0.89210   Biso      1.000     C          0.593484  
         C84       1.0000    0.40800   0.81600   0.85370   Biso      1.000     C          -0.017235           
         C85       1.0000    0.41300   0.79720   0.76980   Biso      1.000     C          -0.163156           
         C86       1.0000    0.37500   0.73380   0.78330   Biso      1.000     C          0.130605  
         C87       1.0000    0.35470   0.71190   0.83260   Biso      1.000     C          -0.159754           
         C88       1.0000    0.37200   0.75460   0.86650   Biso      1.000     C          -0.102005           
         C89       1.0000    0.43060   0.83520   0.80430   Biso      1.000     C          -0.08806699999999999          
         C90       1.0000    0.61964   0.83624   0.98240   Biso      1.000     C          0.65828   
         C91       1.0000    0.71480   0.76100   0.98570   Biso      1.000     C          -0.031514999999999994         
         C92       1.0000    0.77650   0.77030   0.01120   Biso      1.000     C          -0.118578           
         C93       1.0000    0.86680   0.69740   0.01360   Biso      1.000     C          -0.155698           
         C94       1.0000    0.89290   0.61670   0.99510   Biso      1.000     C          0.14360799999999999           
         C95       1.0000    0.34720   0.70140   0.74640   Biso      1.000     C          -0.147345           
         C96       1.0000    0.83090   0.60890   0.97000   Biso      1.000     C          -0.150546           
         H1        1.0000    0.33160   0.67060   0.65680   Biso      1.000     H          0.11511500000000001           
         H2        1.0000    0.26060   0.64240   0.59980   Biso      1.000     H          0.11443199999999999           
         H3        1.0000    0.28300   0.63380   0.78650   Biso      1.000     H          0.10668699999999999           
         H4        1.0000    0.17510   0.24210   0.47350   Biso      1.000     H          0.087772  
         H5        1.0000    0.29480   0.08960   0.47130   Biso      1.000     H          0.112874  
         H6        1.0000    0.44180   0.97200   0.48730   Biso      1.000     H          0.11728499999999999           
         H7        1.0000    0.32870   0.29590   0.55220   Biso      1.000     H          0.12411300000000001           
         H8        1.0000    0.82340   0.33540   0.58550   Biso      1.000     H          0.126272  
         H9        1.0000    0.75170   0.28250   0.65560   Biso      1.000     H          0.115229  
         H10       1.0000    0.18600   0.57320   0.76370   Biso      1.000     H          0.11451300000000002           
         H11       1.0000    0.93970   0.42370   0.67000   Biso      1.000     H          0.125458  
         H12       1.0000    0.87020   0.36980   0.73970   Biso      1.000     H          0.116531  
         H13       1.0000    0.44670   0.15070   0.54430   Biso      1.000     H          0.113626  
         H14       1.0000    0.12400   0.54080   0.70570   Biso      1.000     H          0.113726  
         H15       1.0000    0.84930   0.55330   0.95570   Biso      1.000     H          0.11362699999999999           
         H16       1.0000    0.57630   0.06030   0.83000   Biso      1.000     H          0.125458  
         H17       1.0000    0.63020   0.12980   0.76030   Biso      1.000     H          0.116531  
         H18       1.0000    0.71750   0.24830   0.84440   Biso      1.000     H          0.115229  
         H19       1.0000    0.66460   0.17660   0.91450   Biso      1.000     H          0.126274  
         H20       1.0000    0.02800   0.55820   0.01270   Biso      1.000     H          0.11727699999999999           
         H21       1.0000    0.70410   0.67130   0.94780   Biso      1.000     H          0.12411300000000001           
         H22       1.0000    0.91040   0.70520   0.02870   Biso      1.000     H          0.112876  
         H23       1.0000    0.75790   0.82490   0.02650   Biso      1.000     H          0.087779  
         H24       1.0000    0.36620   0.71700   0.71350   Biso      1.000     H          0.10668299999999999           
         H25       1.0000    0.35760   0.73940   0.90020   Biso      1.000     H          0.11443199999999999           
         H26       1.0000    0.32940   0.66840   0.84320   Biso      1.000     H          0.11511500000000001           
         H27       1.0000    0.42680   0.81400   0.73630   Biso      1.000     H          0.11451300000000002           
         H28       1.0000    0.45920   0.87600   0.79430   Biso      1.000     H          0.113726  
         H29       1.0000    0.70580   0.22460   0.71990   Biso      1.000     H          0.115997  
         H30       1.0000    0.77540   0.29420   0.78010   Biso      1.000     H          0.115999  
         H31       1.0000    0.67060   0.33160   0.15680   Biso      1.000     H          0.11511400000000001           
         H32       1.0000    0.57320   0.18600   0.26370   Biso      1.000     H          0.11451099999999999           
         H33       1.0000    0.22460   0.70580   0.21990   Biso      1.000     H          0.115999  
         H34       1.0000    0.06030   0.57630   0.33000   Biso      1.000     H          0.125459  
         H35       1.0000    0.12980   0.63020   0.26030   Biso      1.000     H          0.116532  
         H36       1.0000    0.24830   0.71750   0.34440   Biso      1.000     H          0.115229  
         H37       1.0000    0.17660   0.66460   0.41450   Biso      1.000     H          0.126272  
         H38       1.0000    0.55820   0.02800   0.51270   Biso      1.000     H          0.11727699999999999           
         H39       1.0000    0.67130   0.70410   0.44780   Biso      1.000     H          0.12411099999999999           
         H40       1.0000    0.54080   0.12400   0.20570   Biso      1.000     H          0.113725  
         H41       1.0000    0.70520   0.91040   0.52870   Biso      1.000     H          0.112875  
         H42       1.0000    0.82490   0.75790   0.52650   Biso      1.000     H          0.087771  
         H43       1.0000    0.71700   0.36620   0.21350   Biso      1.000     H          0.10668299999999999           
         H44       1.0000    0.73940   0.35760   0.40020   Biso      1.000     H          0.11443299999999999           
         H45       1.0000    0.66840   0.32940   0.34320   Biso      1.000     H          0.11511500000000001           
         H46       1.0000    0.55330   0.84930   0.45570   Biso      1.000     H          0.11362799999999999           
         H47       1.0000    0.87600   0.45920   0.29430   Biso      1.000     H          0.113726  
         H48       1.0000    0.81400   0.42680   0.23630   Biso      1.000     H          0.11451199999999999           
         H49       1.0000    0.64240   0.26060   0.09980   Biso      1.000     H          0.11443099999999999           
         H50       1.0000    0.63380   0.28300   0.28650   Biso      1.000     H          0.10668599999999999           
         H51       1.0000    0.24210   0.17510   0.97350   Biso      1.000     H          0.087772  
         H52       1.0000    0.15070   0.44670   0.04430   Biso      1.000     H          0.113629  
         H53       1.0000    0.29590   0.32870   0.05220   Biso      1.000     H          0.12411300000000001           
         H54       1.0000    0.08960   0.29480   0.97130   Biso      1.000     H          0.112876  
         H55       1.0000    0.33540   0.82340   0.08550   Biso      1.000     H          0.126272  
         H56       1.0000    0.28250   0.75170   0.15560   Biso      1.000     H          0.11523   
         H57       1.0000    0.36980   0.87020   0.23970   Biso      1.000     H          0.116533  
         H58       1.0000    0.42370   0.93970   0.17000   Biso      1.000     H          0.125459  
         H59       1.0000    0.29420   0.77540   0.28010   Biso      1.000     H          0.115998  
         H60       1.0000    0.97200   0.44180   0.98730   Biso      1.000     H          0.11728599999999999           
         O1        1.0000    0.43065   0.17345   0.04242   Biso      1.000     O          -0.5679930000000001           
         O2        1.0000    0.91569   0.41069   0.53662   Biso      1.000     O          -0.674096           
         O3        1.0000    0.54087   0.08707   0.12359   Biso      1.000     O          -0.672042           
         O4        1.0000    0.60629   0.15089   0.06369   Biso      1.000     O          -0.658399           
         O5        1.0000    0.40619   0.09299   0.99606   Biso      1.000     O          -0.7845949999999999           
         O6        1.0000    0.91293   0.45913   0.37641   Biso      1.000     O          -0.672037           
         O7        1.0000    0.41069   0.91569   0.03662   Biso      1.000     O          -0.674092           
         O8        1.0000    0.90701   0.59381   0.50394   Biso      1.000     O          -0.784593           
         O9        1.0000    0.82655   0.56935   0.45758   Biso      1.000     O          -0.567991           
         O10       1.0000    0.84911   0.39371   0.43631   Biso      1.000     O          -0.658409           
         O11       1.0000    0.98074   0.45874   0.58384   Biso      1.000     O          -0.6735979999999999           
         O12       1.0000    0.45874   0.98074   0.08384   Biso      1.000     O          -0.673607           
         O13       1.0000    0.09299   0.40619   0.49606   Biso      1.000     O          -0.784593           
         O14       1.0000    0.08431   0.58931   0.46338   Biso      1.000     O          -0.674096           
         O15       1.0000    0.15089   0.60629   0.56369   Biso      1.000     O          -0.658409           
         O16       1.0000    0.08707   0.54087   0.62359   Biso      1.000     O          -0.672036           
         O17       1.0000    0.58931   0.08431   0.96338   Biso      1.000     O          -0.674091           
         O18       1.0000    0.54126   0.01926   0.91616   Biso      1.000     O          -0.673604           
         O19       1.0000    0.59381   0.90701   0.00394   Biso      1.000     O          -0.784606           
         O20       1.0000    0.56935   0.82655   0.95758   Biso      1.000     O          -0.5679890000000001           
         O21       1.0000    0.39371   0.84911   0.93631   Biso      1.000     O          -0.658409           
         O22       1.0000    0.45913   0.91293   0.87641   Biso      1.000     O          -0.672035           
         O23       1.0000    0.01926   0.54126   0.41616   Biso      1.000     O          -0.673597           
         O24       1.0000    0.17345   0.43065   0.54242   Biso      1.000     O          -0.567991           
         Tb1       1.0000    0.97098   0.43125   0.45556   Biso      1.000     Tb          2.052025  
         Tb2       1.0000    0.56874   0.02902   0.04444   Biso      1.000     Tb          2.052029  
         Tb3       1.0000    0.02902   0.56875   0.54444   Biso      1.000     Tb          2.052025  
         Tb4       1.0000    0.43125   0.97098   0.95556   Biso      1.000     Tb          2.052021 