
##########################################################################
#               Crystallographic Information Format file
#               Produced by PyCifRW module
#
#  This is a CIF file.  CIF has been adopted by the International
#  Union of Crystallography as the standard for data archiving and
#  transmission.
#
#  For information on this file format, follow the CIF links at
#  http://www.iucr.org
##########################################################################

data_image0

_cell_length_a                          16.9789
_cell_length_b                          21.612
_cell_length_c                          13.8905
_cell_angle_alpha                       90
_cell_angle_beta                        90
_cell_angle_gamma                       90
_symmetry_space_group_name_H-M          'P 1'
_symmetry_int_tables_number             1
loop_
  _symmetry_equiv_pos_as_xyz
         'x, y, z' 
loop_
  _atom_site_label
  _atom_site_occupancy
  _atom_site_fract_x
  _atom_site_fract_y
  _atom_site_fract_z
  _atom_site_thermal_displace_type
  _atom_site_B_iso_or_equiv
  _atom_site_type_symbol
  _atom_site_charge
         C1        1.0000    0.35800   0.16840   0.61930   Biso      1.000     C          0.675283  
         C2        1.0000    0.00370   0.21300   0.57890   Biso      1.000     C          0.178896  
         C3        1.0000    0.93920   0.21430   0.51600   Biso      1.000     C          0.167426  
         C4        1.0000    0.92560   0.16610   0.45220   Biso      1.000     C          -0.211248           
         C5        1.0000    0.85800   0.16840   0.38070   Biso      1.000     C          0.675282  
         C6        1.0000    0.04880   0.94990   0.99840   Biso      1.000     C          0.169792  
         C7        1.0000    0.98240   0.95090   0.05940   Biso      1.000     C          0.171239  
         C8        1.0000    0.93420   0.00190   0.06170   Biso      1.000     C          -0.216127           
         C9        1.0000    0.86490   0.00330   0.12860   Biso      1.000     C          0.674352  
         C10       1.0000    0.37290   0.83530   0.64250   Biso      1.000     C          0.672356  
         C11       1.0000    0.52230   0.88280   0.45170   Biso      1.000     C          0.165152  
         C12       1.0000    0.44430   0.83480   0.57850   Biso      1.000     C          -0.212326           
         C13       1.0000    0.49630   0.78700   0.57890   Biso      1.000     C          0.178911  
         C14       1.0000    0.56080   0.78570   0.51600   Biso      1.000     C          0.167424  
         C15       1.0000    0.05570   0.16520   0.57850   Biso      1.000     C          -0.212309           
         C16       1.0000    0.57440   0.83390   0.45220   Biso      1.000     C          -0.211243           
         C17       1.0000    0.95120   0.44990   0.49840   Biso      1.000     C          0.169792  
         C18       1.0000    0.01760   0.45090   0.55940   Biso      1.000     C          0.171239  
         C19       1.0000    0.06580   0.50190   0.56170   Biso      1.000     C          -0.216127           
         C20       1.0000    0.13510   0.50330   0.62860   Biso      1.000     C          0.674352  
         C21       1.0000    0.62710   0.33530   0.14250   Biso      1.000     C          0.672356  
         C22       1.0000    0.47770   0.38280   0.95170   Biso      1.000     C          0.165152  
         C23       1.0000    0.54260   0.38390   0.01500   Biso      1.000     C          0.169097  
         C24       1.0000    0.55570   0.33480   0.07850   Biso      1.000     C          -0.212326           
         C25       1.0000    0.50370   0.28700   0.07890   Biso      1.000     C          0.178911  
         C26       1.0000    0.43920   0.28570   0.01600   Biso      1.000     C          0.167424  
         C27       1.0000    0.42560   0.33390   0.95220   Biso      1.000     C          -0.211243           
         C28       1.0000    0.35800   0.33160   0.88070   Biso      1.000     C          0.675282  
         C29       1.0000    0.54880   0.55010   0.49840   Biso      1.000     C          0.169792  
         C30       1.0000    0.64200   0.83160   0.38070   Biso      1.000     C          0.675282  
         C31       1.0000    0.48240   0.54910   0.55940   Biso      1.000     C          0.171238  
         C32       1.0000    0.04260   0.11610   0.51500   Biso      1.000     C          0.169095  
         C33       1.0000    0.12710   0.16470   0.64250   Biso      1.000     C          0.672354  
         C34       1.0000    0.04880   0.55010   0.50160   Biso      1.000     C          0.169801  
         C35       1.0000    0.98240   0.54910   0.44060   Biso      1.000     C          0.171237  
         C36       1.0000    0.93420   0.49810   0.43830   Biso      1.000     C          -0.216117           
         C37       1.0000    0.86490   0.49670   0.37140   Biso      1.000     C          0.674351  
         C38       1.0000    0.37290   0.66470   0.85750   Biso      1.000     C          0.672356  
         C39       1.0000    0.52230   0.61720   0.04830   Biso      1.000     C          0.165152  
         C40       1.0000    0.45740   0.61610   0.98500   Biso      1.000     C          0.169097  
         C41       1.0000    0.44430   0.66520   0.92150   Biso      1.000     C          -0.212326           
         C42       1.0000    0.49630   0.71300   0.92110   Biso      1.000     C          0.178911  
         C43       1.0000    0.56080   0.71430   0.98400   Biso      1.000     C          0.167424  
         C44       1.0000    0.57440   0.66610   0.04780   Biso      1.000     C          -0.211243           
         C45       1.0000    0.64200   0.66840   0.11930   Biso      1.000     C          0.675282  
         C46       1.0000    0.45120   0.44990   0.50160   Biso      1.000     C          0.169792  
         C47       1.0000    0.97770   0.11720   0.45170   Biso      1.000     C          0.165157  
         C48       1.0000    0.51760   0.45090   0.44060   Biso      1.000     C          0.171238  
         C49       1.0000    0.63510   0.50330   0.37140   Biso      1.000     C          0.674351  
         C50       1.0000    0.12710   0.33530   0.85750   Biso      1.000     C          0.672356  
         C51       1.0000    0.97770   0.38280   0.04830   Biso      1.000     C          0.165152  
         C52       1.0000    0.04260   0.38390   0.98500   Biso      1.000     C          0.169097  
         C53       1.0000    0.05570   0.33480   0.92150   Biso      1.000     C          -0.212326           
         C54       1.0000    0.00370   0.28700   0.92110   Biso      1.000     C          0.178911  
         C55       1.0000    0.93920   0.28570   0.98400   Biso      1.000     C          0.167424  
         C56       1.0000    0.92560   0.33390   0.04780   Biso      1.000     C          -0.211243           
         C57       1.0000    0.85800   0.33160   0.11930   Biso      1.000     C          0.675282  
         C58       1.0000    0.45120   0.05010   0.99840   Biso      1.000     C          0.169792  
         C59       1.0000    0.51760   0.04910   0.05940   Biso      1.000     C          0.171239  
         C60       1.0000    0.56580   0.99810   0.06170   Biso      1.000     C          -0.216127           
         C61       1.0000    0.63510   0.99670   0.12860   Biso      1.000     C          0.674352  
         C62       1.0000    0.56580   0.50190   0.43830   Biso      1.000     C          -0.216117           
         C63       1.0000    0.43420   0.49810   0.56170   Biso      1.000     C          -0.216117           
         C64       1.0000    0.45740   0.88390   0.51500   Biso      1.000     C          0.169097  
         C65       1.0000    0.87290   0.66470   0.14250   Biso      1.000     C          0.672354  
         C66       1.0000    0.06080   0.71430   0.01600   Biso      1.000     C          0.167426  
         C67       1.0000    0.07440   0.66610   0.95220   Biso      1.000     C          -0.211248           
         C68       1.0000    0.14200   0.66840   0.88070   Biso      1.000     C          0.675282  
         C69       1.0000    0.42560   0.16610   0.54780   Biso      1.000     C          -0.21125  
         C70       1.0000    0.50370   0.21300   0.42110   Biso      1.000     C          0.178895  
         C71       1.0000    0.55570   0.16520   0.42150   Biso      1.000     C          -0.212309           
         C72       1.0000    0.54260   0.11610   0.48500   Biso      1.000     C          0.169095  
         C73       1.0000    0.47770   0.11720   0.54830   Biso      1.000     C          0.165157  
         C74       1.0000    0.62710   0.16470   0.35750   Biso      1.000     C          0.672354  
         C75       1.0000    0.13510   0.99670   0.87140   Biso      1.000     C          0.674352  
         C76       1.0000    0.06580   0.99810   0.93830   Biso      1.000     C          -0.216122           
         C77       1.0000    0.01760   0.04910   0.94060   Biso      1.000     C          0.171242  
         C78       1.0000    0.95120   0.05010   0.00160   Biso      1.000     C          0.169801  
         C79       1.0000    0.48240   0.95090   0.94060   Biso      1.000     C          0.171237  
         C80       1.0000    0.54880   0.94990   0.00160   Biso      1.000     C          0.169801  
         C81       1.0000    0.99630   0.71300   0.07890   Biso      1.000     C          0.178896  
         C82       1.0000    0.94430   0.66520   0.07850   Biso      1.000     C          -0.212309           
         C83       1.0000    0.43920   0.21430   0.48400   Biso      1.000     C          0.167428  
         C84       1.0000    0.36490   0.49670   0.62860   Biso      1.000     C          0.674351  
         C85       1.0000    0.07440   0.83390   0.54780   Biso      1.000     C          -0.211249           
         C86       1.0000    0.43420   0.00190   0.93830   Biso      1.000     C          -0.216117           
         C87       1.0000    0.36490   0.00330   0.87140   Biso      1.000     C          0.674351  
         C88       1.0000    0.02230   0.61720   0.95170   Biso      1.000     C          0.165157  
         C89       1.0000    0.87290   0.83530   0.35750   Biso      1.000     C          0.672356  
         C90       1.0000    0.06080   0.78570   0.48400   Biso      1.000     C          0.167426  
         C91       1.0000    0.02230   0.88280   0.54830   Biso      1.000     C          0.165157  
         C92       1.0000    0.95740   0.88390   0.48500   Biso      1.000     C          0.169097  
         C93       1.0000    0.94430   0.83480   0.42150   Biso      1.000     C          -0.212326           
         C94       1.0000    0.14200   0.83160   0.61930   Biso      1.000     C          0.675282  
         C95       1.0000    0.99630   0.78700   0.42110   Biso      1.000     C          0.178911  
         C96       1.0000    0.95740   0.61610   0.01500   Biso      1.000     C          0.169095  
         F1        1.0000    0.97160   0.90320   0.11900   Biso      1.000     F          -0.09042  
         F2        1.0000    0.40430   0.09990   0.00360   Biso      1.000     F          -0.106043           
         F3        1.0000    0.40850   0.93270   0.50830   Biso      1.000     F          -0.101401           
         F4        1.0000    0.48830   0.73860   0.63880   Biso      1.000     F          -0.100844           
         F5        1.0000    0.88960   0.26290   0.52130   Biso      1.000     F          -0.104817           
         F6        1.0000    0.11040   0.73710   0.47870   Biso      1.000     F          -0.104817           
         F7        1.0000    0.53080   0.93170   0.39170   Biso      1.000     F          -0.100957           
         F8        1.0000    0.61040   0.73710   0.52130   Biso      1.000     F          -0.104817           
         F9        1.0000    0.09570   0.90010   0.00360   Biso      1.000     F          -0.106043           
         F10       1.0000    0.88960   0.23710   0.97870   Biso      1.000     F          -0.104817           
         F11       1.0000    0.51170   0.26140   0.36120   Biso      1.000     F          -0.100843           
         F12       1.0000    0.59150   0.06730   0.49170   Biso      1.000     F          -0.101401           
         F13       1.0000    0.46920   0.06830   0.60830   Biso      1.000     F          -0.100958           
         F14       1.0000    0.02840   0.09680   0.88100   Biso      1.000     F          -0.09042  
         F15       1.0000    0.98830   0.73860   0.36120   Biso      1.000     F          -0.100844           
         F16       1.0000    0.90430   0.09990   0.99640   Biso      1.000     F          -0.106043           
         F17       1.0000    0.52840   0.09680   0.11900   Biso      1.000     F          -0.09042  
         F18       1.0000    0.96920   0.06830   0.39170   Biso      1.000     F          -0.100958           
         F19       1.0000    0.90850   0.93270   0.49170   Biso      1.000     F          -0.101401           
         F20       1.0000    0.09150   0.06730   0.50830   Biso      1.000     F          -0.101401           
         F21       1.0000    0.01170   0.23860   0.86120   Biso      1.000     F          -0.100844           
         F22       1.0000    0.03080   0.56830   0.89170   Biso      1.000     F          -0.100958           
         F23       1.0000    0.90850   0.56730   0.00830   Biso      1.000     F          -0.101401           
         F24       1.0000    0.98830   0.76140   0.13880   Biso      1.000     F          -0.100843           
         F25       1.0000    0.11040   0.76290   0.02130   Biso      1.000     F          -0.104817           
         F26       1.0000    0.09570   0.59990   0.49640   Biso      1.000     F          -0.106043           
         F27       1.0000    0.97160   0.59680   0.38100   Biso      1.000     F          -0.09042  
         F28       1.0000    0.53080   0.56830   0.10830   Biso      1.000     F          -0.100957           
         F29       1.0000    0.40850   0.56730   0.99170   Biso      1.000     F          -0.101401           
         F30       1.0000    0.48830   0.76140   0.86120   Biso      1.000     F          -0.100844           
         F31       1.0000    0.03080   0.93170   0.60830   Biso      1.000     F          -0.100958           
         F32       1.0000    0.61040   0.76290   0.97870   Biso      1.000     F          -0.104817           
         F33       1.0000    0.38960   0.23710   0.02130   Biso      1.000     F          -0.104817           
         F34       1.0000    0.51170   0.23860   0.13880   Biso      1.000     F          -0.100844           
         F35       1.0000    0.59150   0.43270   0.00830   Biso      1.000     F          -0.101401           
         F36       1.0000    0.46920   0.43170   0.89170   Biso      1.000     F          -0.100957           
         F37       1.0000    0.02840   0.40320   0.61900   Biso      1.000     F          -0.09042  
         F38       1.0000    0.90430   0.40010   0.50360   Biso      1.000     F          -0.106043           
         F39       1.0000    0.38960   0.26290   0.47870   Biso      1.000     F          -0.104817           
         F40       1.0000    0.01170   0.26140   0.63880   Biso      1.000     F          -0.100843           
         F41       1.0000    0.40430   0.40010   0.49640   Biso      1.000     F          -0.106043           
         F42       1.0000    0.52840   0.40320   0.38100   Biso      1.000     F          -0.09042  
         F43       1.0000    0.96920   0.43170   0.10830   Biso      1.000     F          -0.100957           
         F44       1.0000    0.09150   0.43270   0.99170   Biso      1.000     F          -0.101401           
         F45       1.0000    0.59570   0.90010   0.99640   Biso      1.000     F          -0.106043           
         F46       1.0000    0.47160   0.90320   0.88100   Biso      1.000     F          -0.09042  
         F47       1.0000    0.59570   0.59990   0.50360   Biso      1.000     F          -0.106043           
         F48       1.0000    0.47160   0.59680   0.61900   Biso      1.000     F          -0.09042  
         H1        1.0000    0.77800   0.16690   0.12000   Biso      1.000     H          0.457572  
         H2        1.0000    0.25000   0.50000   0.88430   Biso      1.000     H          0.466433  
         H3        1.0000    0.25000   0.00000   0.61570   Biso      1.000     H          0.466433  
         H4        1.0000    0.72200   0.66690   0.38000   Biso      1.000     H          0.457572  
         H5        1.0000    0.75000   0.00000   0.38430   Biso      1.000     H          0.466433  
         H6        1.0000    0.77800   0.33310   0.38000   Biso      1.000     H          0.457572  
         H7        1.0000    0.27800   0.16690   0.88000   Biso      1.000     H          0.457572  
         H8        1.0000    0.72200   0.83310   0.12000   Biso      1.000     H          0.457572  
         H9        1.0000    0.22200   0.66690   0.62000   Biso      1.000     H          0.457572  
         H10       1.0000    0.22200   0.83310   0.88000   Biso      1.000     H          0.457572  
         H11       1.0000    0.27800   0.33310   0.62000   Biso      1.000     H          0.457572  
         H12       1.0000    0.75000   0.50000   0.11570   Biso      1.000     H          0.466433  
         In1       1.0000    0.74997   0.91673   0.24909   Biso      1.000     In          1.601679  
         In2       1.0000    0.25003   0.41673   0.74909   Biso      1.000     In          1.601679  
         In3       1.0000    0.75003   0.41673   0.25091   Biso      1.000     In          1.601679  
         In4       1.0000    0.25003   0.08327   0.75091   Biso      1.000     In          1.601679  
         In5       1.0000    0.75003   0.08327   0.24909   Biso      1.000     In          1.601679  
         In6       1.0000    0.24997   0.91673   0.75091   Biso      1.000     In          1.601679  
         In7       1.0000    0.24956   0.75000   0.75000   Biso      1.000     In          1.594055  
         In8       1.0000    0.74956   0.75000   0.25000   Biso      1.000     In          1.594055  
         In9       1.0000    0.25044   0.25000   0.75000   Biso      1.000     In          1.594055  
         In10      1.0000    0.24997   0.58327   0.74909   Biso      1.000     In          1.601679  
         In11      1.0000    0.75044   0.25000   0.25000   Biso      1.000     In          1.594055  
         In12      1.0000    0.74997   0.58327   0.25091   Biso      1.000     In          1.601679  
         O1        1.0000    0.24540   0.83330   0.82670   Biso      1.000     O          -0.950518           
         O2        1.0000    0.35170   0.05490   0.82960   Biso      1.000     O          -0.589285           
         O3        1.0000    0.32700   0.95470   0.86190   Biso      1.000     O          -0.567856           
         O4        1.0000    0.85440   0.88730   0.32290   Biso      1.000     O          -0.568915           
         O5        1.0000    0.74540   0.83330   0.17330   Biso      1.000     O          -0.950518           
         O6        1.0000    0.24540   0.66670   0.67330   Biso      1.000     O          -0.950518           
         O7        1.0000    0.35170   0.44510   0.67040   Biso      1.000     O          -0.589285           
         O8        1.0000    0.32700   0.54530   0.63810   Biso      1.000     O          -0.567856           
         O9        1.0000    0.83730   0.78490   0.34470   Biso      1.000     O          -0.576122           
         O10       1.0000    0.85440   0.61270   0.17710   Biso      1.000     O          -0.568915           
         O11       1.0000    0.16270   0.21510   0.65530   Biso      1.000     O          -0.576122           
         O12       1.0000    0.67560   0.61810   0.13760   Biso      1.000     O          -0.589064           
         O13       1.0000    0.33730   0.71510   0.84470   Biso      1.000     O          -0.576122           
         O14       1.0000    0.35440   0.61270   0.82290   Biso      1.000     O          -0.568915           
         O15       1.0000    0.82700   0.54530   0.36190   Biso      1.000     O          -0.567856           
         O16       1.0000    0.85170   0.44510   0.32960   Biso      1.000     O          -0.589285           
         O17       1.0000    0.74540   0.66670   0.32670   Biso      1.000     O          -0.950518           
         O18       1.0000    0.83730   0.71510   0.15530   Biso      1.000     O          -0.576122           
         O19       1.0000    0.25000   0.00000   0.67520   Biso      1.000     O          -0.960389           
         O20       1.0000    0.17560   0.61810   0.86240   Biso      1.000     O          -0.589064           
         O21       1.0000    0.25000   0.50000   0.82480   Biso      1.000     O          -0.960389           
         O22       1.0000    0.15550   0.72010   0.84630   Biso      1.000     O          -0.56698  
         O23       1.0000    0.75000   0.00000   0.32480   Biso      1.000     O          -0.960389           
         O24       1.0000    0.65550   0.72010   0.15370   Biso      1.000     O          -0.56698  
         O25       1.0000    0.34450   0.27990   0.84630   Biso      1.000     O          -0.56698  
         O26       1.0000    0.64560   0.38730   0.17710   Biso      1.000     O          -0.568915           
         O27       1.0000    0.66270   0.28490   0.15530   Biso      1.000     O          -0.576122           
         O28       1.0000    0.14560   0.11270   0.67710   Biso      1.000     O          -0.568915           
         O29       1.0000    0.67300   0.04530   0.13810   Biso      1.000     O          -0.567855           
         O30       1.0000    0.64830   0.94510   0.17040   Biso      1.000     O          -0.589285           
         O31       1.0000    0.75460   0.16670   0.17330   Biso      1.000     O          -0.950518           
         O32       1.0000    0.85170   0.05490   0.17040   Biso      1.000     O          -0.589285           
         O33       1.0000    0.14830   0.94510   0.82960   Biso      1.000     O          -0.589285           
         O34       1.0000    0.17300   0.04530   0.86190   Biso      1.000     O          -0.567856           
         O35       1.0000    0.64560   0.11270   0.32290   Biso      1.000     O          -0.568915           
         O36       1.0000    0.66270   0.21510   0.34470   Biso      1.000     O          -0.576122           
         O37       1.0000    0.32440   0.11810   0.63760   Biso      1.000     O          -0.589064           
         O38       1.0000    0.34450   0.22010   0.65370   Biso      1.000     O          -0.56698  
         O39       1.0000    0.82700   0.95470   0.13810   Biso      1.000     O          -0.567856           
         O40       1.0000    0.35440   0.88730   0.67710   Biso      1.000     O          -0.568915           
         O41       1.0000    0.33730   0.78490   0.65530   Biso      1.000     O          -0.576122           
         O42       1.0000    0.67560   0.88190   0.36240   Biso      1.000     O          -0.589064           
         O43       1.0000    0.65550   0.77990   0.34630   Biso      1.000     O          -0.56698  
         O44       1.0000    0.75000   0.50000   0.17520   Biso      1.000     O          -0.960389           
         O45       1.0000    0.82440   0.11810   0.36240   Biso      1.000     O          -0.589064           
         O46       1.0000    0.17300   0.45470   0.63810   Biso      1.000     O          -0.567855           
         O47       1.0000    0.25460   0.16670   0.82670   Biso      1.000     O          -0.950518           
         O48       1.0000    0.25460   0.33330   0.67330   Biso      1.000     O          -0.950518           
         O49       1.0000    0.75460   0.33330   0.32670   Biso      1.000     O          -0.950518           
         O50       1.0000    0.64830   0.55490   0.32960   Biso      1.000     O          -0.589285           
         O51       1.0000    0.32440   0.38190   0.86240   Biso      1.000     O          -0.589064           
         O52       1.0000    0.67300   0.45470   0.36190   Biso      1.000     O          -0.567856           
         O53       1.0000    0.16270   0.28490   0.84470   Biso      1.000     O          -0.576122           
         O54       1.0000    0.82440   0.38190   0.13760   Biso      1.000     O          -0.589064           
         O55       1.0000    0.84450   0.27990   0.15370   Biso      1.000     O          -0.56698  
         O56       1.0000    0.84450   0.22010   0.34630   Biso      1.000     O          -0.56698  
         O57       1.0000    0.17560   0.88190   0.63760   Biso      1.000     O          -0.589064           
         O58       1.0000    0.15550   0.77990   0.65370   Biso      1.000     O          -0.56698  
         O59       1.0000    0.14560   0.38730   0.82290   Biso      1.000     O          -0.568915           
         O60       1.0000    0.14830   0.55490   0.67040   Biso      1.000     O          -0.589285 