
##########################################################################
#               Crystallographic Information Format file
#               Produced by PyCifRW module
#
#  This is a CIF file.  CIF has been adopted by the International
#  Union of Crystallography as the standard for data archiving and
#  transmission.
#
#  For information on this file format, follow the CIF links at
#  http://www.iucr.org
##########################################################################

data_image0

_cell_length_a                          16.264
_cell_length_b                          15.11
_cell_length_c                          14.376
_cell_angle_alpha                       90
_cell_angle_beta                        115.148
_cell_angle_gamma                       90
_symmetry_space_group_name_H-M          'P 1'
_symmetry_int_tables_number             1
loop_
  _symmetry_equiv_pos_as_xyz
         'x, y, z' 
loop_
  _atom_site_label
  _atom_site_occupancy
  _atom_site_fract_x
  _atom_site_fract_y
  _atom_site_fract_z
  _atom_site_thermal_displace_type
  _atom_site_B_iso_or_equiv
  _atom_site_type_symbol
  _atom_site_charge
         C1        1.0000    0.68610   0.40430   0.56720   Biso      1.000     C          0.642477  
         C2        1.0000    0.75670   0.17430   0.37630   Biso      1.000     C          -0.209951           
         C3        1.0000    0.81390   0.09570   0.43280   Biso      1.000     C          0.642477  
         C4        1.0000    0.10200   0.89970   0.20630   Biso      1.000     C          0.688561  
         C5        1.0000    0.16940   0.66400   0.30090   Biso      1.000     C          0.164757  
         C6        1.0000    0.12000   0.73590   0.24430   Biso      1.000     C          0.166528  
         C7        1.0000    0.15550   0.82040   0.26350   Biso      1.000     C          -0.228642           
         C8        1.0000    0.29270   0.75860   0.39540   Biso      1.000     C          0.148537  
         C9        1.0000    0.25670   0.67430   0.37630   Biso      1.000     C          -0.209949           
         C10       1.0000    0.31390   0.59570   0.43280   Biso      1.000     C          0.642477  
         C11       1.0000    0.60200   0.60030   0.70630   Biso      1.000     C          0.688561  
         C12       1.0000    0.66940   0.83600   0.80090   Biso      1.000     C          0.164757  
         C13       1.0000    0.62000   0.76410   0.74430   Biso      1.000     C          0.166528  
         C14       1.0000    0.65550   0.67960   0.76350   Biso      1.000     C          -0.228642           
         C15       1.0000    0.74310   0.66910   0.83960   Biso      1.000     C          0.169178  
         C16       1.0000    0.79270   0.74140   0.89540   Biso      1.000     C          0.148537  
         C17       1.0000    0.75670   0.82570   0.87630   Biso      1.000     C          -0.209949           
         C18       1.0000    0.81390   0.90430   0.93280   Biso      1.000     C          0.642477  
         C19       1.0000    0.79270   0.25860   0.39540   Biso      1.000     C          0.148538  
         C20       1.0000    0.74310   0.33090   0.33960   Biso      1.000     C          0.169178  
         C21       1.0000    0.65550   0.32040   0.26350   Biso      1.000     C          -0.228642           
         C22       1.0000    0.62000   0.23590   0.24430   Biso      1.000     C          0.166527  
         C23       1.0000    0.39800   0.39970   0.29370   Biso      1.000     C          0.688561  
         C24       1.0000    0.33060   0.16400   0.19910   Biso      1.000     C          0.164757  
         C25       1.0000    0.38000   0.23590   0.25570   Biso      1.000     C          0.166528  
         C26       1.0000    0.34450   0.32040   0.23650   Biso      1.000     C          -0.228642           
         C27       1.0000    0.25690   0.33090   0.16040   Biso      1.000     C          0.169178  
         C28       1.0000    0.20730   0.25860   0.10460   Biso      1.000     C          0.148537  
         C29       1.0000    0.24330   0.17430   0.12370   Biso      1.000     C          -0.209949           
         C30       1.0000    0.18610   0.09570   0.06720   Biso      1.000     C          0.642477  
         C31       1.0000    0.10200   0.10030   0.70630   Biso      1.000     C          0.688561  
         C32       1.0000    0.89800   0.89970   0.29370   Biso      1.000     C          0.688561  
         C33       1.0000    0.88000   0.73590   0.25570   Biso      1.000     C          0.166527  
         C34       1.0000    0.84450   0.82040   0.23650   Biso      1.000     C          -0.228642           
         C35       1.0000    0.75690   0.83090   0.16040   Biso      1.000     C          0.169178  
         C36       1.0000    0.70730   0.75860   0.10460   Biso      1.000     C          0.148537  
         C37       1.0000    0.74330   0.67430   0.12370   Biso      1.000     C          -0.20995  
         C38       1.0000    0.68610   0.59570   0.06720   Biso      1.000     C          0.642477  
         C39       1.0000    0.60200   0.39970   0.20630   Biso      1.000     C          0.68856   
         C40       1.0000    0.66940   0.16400   0.30090   Biso      1.000     C          0.16476   
         C41       1.0000    0.83060   0.66400   0.19910   Biso      1.000     C          0.16476   
         C42       1.0000    0.16940   0.33600   0.80090   Biso      1.000     C          0.164757  
         C43       1.0000    0.24310   0.83090   0.33960   Biso      1.000     C          0.169178  
         C44       1.0000    0.15550   0.17960   0.76350   Biso      1.000     C          -0.228642           
         C45       1.0000    0.12000   0.26410   0.74430   Biso      1.000     C          0.166528  
         C46       1.0000    0.18610   0.90430   0.56720   Biso      1.000     C          0.642477  
         C47       1.0000    0.24330   0.82570   0.62370   Biso      1.000     C          -0.209951           
         C48       1.0000    0.20730   0.74140   0.60460   Biso      1.000     C          0.148538  
         C49       1.0000    0.25690   0.66910   0.66040   Biso      1.000     C          0.169178  
         C50       1.0000    0.34450   0.67960   0.73650   Biso      1.000     C          -0.228642           
         C51       1.0000    0.38000   0.76410   0.75570   Biso      1.000     C          0.166527  
         C52       1.0000    0.89800   0.10030   0.79370   Biso      1.000     C          0.688561  
         C53       1.0000    0.31390   0.40430   0.93280   Biso      1.000     C          0.642477  
         C54       1.0000    0.25670   0.32570   0.87630   Biso      1.000     C          -0.20995  
         C55       1.0000    0.29270   0.24140   0.89540   Biso      1.000     C          0.148538  
         C56       1.0000    0.83060   0.33600   0.69910   Biso      1.000     C          0.164757  
         C57       1.0000    0.88000   0.26410   0.75570   Biso      1.000     C          0.166528  
         C58       1.0000    0.84450   0.17960   0.73650   Biso      1.000     C          -0.228642           
         C59       1.0000    0.75690   0.16910   0.66040   Biso      1.000     C          0.169178  
         C60       1.0000    0.70730   0.24140   0.60460   Biso      1.000     C          0.148537  
         C61       1.0000    0.74330   0.32570   0.62370   Biso      1.000     C          -0.209949           
         C62       1.0000    0.33060   0.83600   0.69910   Biso      1.000     C          0.16476   
         C63       1.0000    0.39800   0.60030   0.79370   Biso      1.000     C          0.68856   
         C64       1.0000    0.24310   0.16910   0.83960   Biso      1.000     C          0.169178  
         F1        1.0000    0.87630   0.27300   0.46860   Biso      1.000     F          -0.0954   
         F2        1.0000    0.13200   0.58360   0.27700   Biso      1.000     F          -0.096371           
         F3        1.0000    0.03570   0.72220   0.17170   Biso      1.000     F          -0.100091           
         F4        1.0000    0.78290   0.41030   0.35900   Biso      1.000     F          -0.090594           
         F5        1.0000    0.62370   0.77300   0.03140   Biso      1.000     F          -0.0954   
         F6        1.0000    0.63200   0.08360   0.27700   Biso      1.000     F          -0.096371           
         F7        1.0000    0.96430   0.27780   0.82830   Biso      1.000     F          -0.100091           
         F8        1.0000    0.71710   0.08970   0.64100   Biso      1.000     F          -0.090594           
         F9        1.0000    0.62370   0.22700   0.53140   Biso      1.000     F          -0.0954   
         F10       1.0000    0.28290   0.91030   0.35900   Biso      1.000     F          -0.090594           
         F11       1.0000    0.71710   0.91030   0.14100   Biso      1.000     F          -0.090594           
         F12       1.0000    0.96430   0.72220   0.32830   Biso      1.000     F          -0.100091           
         F13       1.0000    0.86800   0.58360   0.22300   Biso      1.000     F          -0.096371           
         F14       1.0000    0.12370   0.27300   0.03140   Biso      1.000     F          -0.0954   
         F15       1.0000    0.21710   0.41030   0.14100   Biso      1.000     F          -0.090594           
         F16       1.0000    0.46430   0.22220   0.32830   Biso      1.000     F          -0.100091           
         F17       1.0000    0.36800   0.08360   0.22300   Biso      1.000     F          -0.096371           
         F18       1.0000    0.53570   0.22220   0.17170   Biso      1.000     F          -0.100091           
         F19       1.0000    0.37630   0.77300   0.46860   Biso      1.000     F          -0.0954   
         F20       1.0000    0.86800   0.41640   0.72300   Biso      1.000     F          -0.096371           
         F21       1.0000    0.12370   0.72700   0.53140   Biso      1.000     F          -0.0954   
         F22       1.0000    0.21710   0.58970   0.64100   Biso      1.000     F          -0.090594           
         F23       1.0000    0.46430   0.77780   0.82830   Biso      1.000     F          -0.100091           
         F24       1.0000    0.36800   0.91640   0.72300   Biso      1.000     F          -0.096371           
         F25       1.0000    0.13200   0.41640   0.77700   Biso      1.000     F          -0.096371           
         F26       1.0000    0.03570   0.27780   0.67170   Biso      1.000     F          -0.100091           
         F27       1.0000    0.28290   0.08970   0.85900   Biso      1.000     F          -0.090594           
         F28       1.0000    0.37630   0.22700   0.96860   Biso      1.000     F          -0.0954   
         F29       1.0000    0.87630   0.72700   0.96860   Biso      1.000     F          -0.0954   
         F30       1.0000    0.63200   0.91640   0.77700   Biso      1.000     F          -0.096371           
         F31       1.0000    0.53570   0.77780   0.67170   Biso      1.000     F          -0.100091           
         F32       1.0000    0.78290   0.58970   0.85900   Biso      1.000     F          -0.090594           
         H1        1.0000    0.61000   0.46900   0.92400   Biso      1.000     H          0.429685  
         H2        1.0000    0.39000   0.46900   0.57600   Biso      1.000     H          0.429685  
         H3        1.0000    0.11000   0.96900   0.92400   Biso      1.000     H          0.429685  
         H4        1.0000    0.39000   0.53100   0.07600   Biso      1.000     H          0.429685  
         H5        1.0000    0.11000   0.03100   0.42400   Biso      1.000     H          0.429685  
         H6        1.0000    0.61000   0.53100   0.42400   Biso      1.000     H          0.429685  
         H7        1.0000    0.89000   0.96900   0.57600   Biso      1.000     H          0.429685  
         H8        1.0000    0.89000   0.03100   0.07600   Biso      1.000     H          0.429685  
         In1       1.0000    0.00000   0.06449   0.25000   Biso      1.000     In          1.529579  
         In2       1.0000    0.00000   0.93551   0.75000   Biso      1.000     In          1.529579  
         In3       1.0000    0.50000   0.43551   0.75000   Biso      1.000     In          1.529579  
         In4       1.0000    0.00000   0.00000   0.00000   Biso      1.000     In          1.588823  
         In5       1.0000    0.50000   0.50000   0.00000   Biso      1.000     In          1.588823  
         In6       1.0000    0.00000   0.00000   0.50000   Biso      1.000     In          1.588823  
         In7       1.0000    0.50000   0.50000   0.50000   Biso      1.000     In          1.588823  
         In8       1.0000    0.50000   0.56449   0.25000   Biso      1.000     In          1.529579  
         O1        1.0000    0.61160   0.40980   0.57740   Biso      1.000     O          -0.628843           
         O2        1.0000    0.94000   0.05580   0.08960   Biso      1.000     O          -0.882532           
         O3        1.0000    0.11160   0.09020   0.07740   Biso      1.000     O          -0.628843           
         O4        1.0000    0.21260   0.04640   0.01810   Biso      1.000     O          -0.498955           
         O5        1.0000    0.43370   0.39530   0.38920   Biso      1.000     O          -0.538299           
         O6        1.0000    0.28740   0.45360   0.98190   Biso      1.000     O          -0.498955           
         O7        1.0000    0.06630   0.10470   0.61080   Biso      1.000     O          -0.538299           
         O8        1.0000    0.09860   0.03700   0.76170   Biso      1.000     O          -0.599247           
         O9        1.0000    0.40140   0.46300   0.23830   Biso      1.000     O          -0.599247           
         O10       1.0000    0.56000   0.44420   0.91040   Biso      1.000     O          -0.882532           
         O11       1.0000    0.38840   0.40980   0.92260   Biso      1.000     O          -0.628843           
         O12       1.0000    0.56000   0.55580   0.41040   Biso      1.000     O          -0.882532           
         O13       1.0000    0.44000   0.55580   0.08960   Biso      1.000     O          -0.882532           
         O14       1.0000    0.06630   0.89530   0.11080   Biso      1.000     O          -0.538299           
         O15       1.0000    0.28740   0.54640   0.48190   Biso      1.000     O          -0.498955           
         O16       1.0000    0.38840   0.59020   0.42260   Biso      1.000     O          -0.628843           
         O17       1.0000    0.11160   0.90980   0.57740   Biso      1.000     O          -0.628843           
         O18       1.0000    0.21260   0.95360   0.51810   Biso      1.000     O          -0.498955           
         O19       1.0000    0.43370   0.60470   0.88920   Biso      1.000     O          -0.538299           
         O20       1.0000    0.40140   0.53700   0.73830   Biso      1.000     O          -0.599247           
         O21       1.0000    0.94000   0.94420   0.58960   Biso      1.000     O          -0.882532           
         O22       1.0000    0.88840   0.09020   0.42260   Biso      1.000     O          -0.628843           
         O23       1.0000    0.78740   0.04640   0.48190   Biso      1.000     O          -0.498955           
         O24       1.0000    0.56630   0.39530   0.11080   Biso      1.000     O          -0.538299           
         O25       1.0000    0.59860   0.46300   0.26170   Biso      1.000     O          -0.599247           
         O26       1.0000    0.06000   0.05580   0.41040   Biso      1.000     O          -0.882532           
         O27       1.0000    0.06000   0.94420   0.91040   Biso      1.000     O          -0.882532           
         O28       1.0000    0.59860   0.53700   0.76170   Biso      1.000     O          -0.599247           
         O29       1.0000    0.56630   0.60470   0.61080   Biso      1.000     O          -0.538299           
         O30       1.0000    0.78740   0.95360   0.98190   Biso      1.000     O          -0.498955           
         O31       1.0000    0.44000   0.44420   0.58960   Biso      1.000     O          -0.882532           
         O32       1.0000    0.90140   0.03700   0.73830   Biso      1.000     O          -0.599247           
         O33       1.0000    0.93370   0.10470   0.88920   Biso      1.000     O          -0.538299           
         O34       1.0000    0.71260   0.45360   0.51810   Biso      1.000     O          -0.498955           
         O35       1.0000    0.61160   0.59020   0.07740   Biso      1.000     O          -0.628843           
         O36       1.0000    0.09860   0.96300   0.26170   Biso      1.000     O          -0.599247           
         O37       1.0000    0.93370   0.89530   0.38920   Biso      1.000     O          -0.538299           
         O38       1.0000    0.90140   0.96300   0.23830   Biso      1.000     O          -0.599247           
         O39       1.0000    0.88840   0.90980   0.92260   Biso      1.000     O          -0.628843           
         O40       1.0000    0.71260   0.54640   0.01810   Biso      1.000     O          -0.498955 