
##########################################################################
#               Crystallographic Information Format file
#               Produced by PyCifRW module
#
#  This is a CIF file.  CIF has been adopted by the International
#  Union of Crystallography as the standard for data archiving and
#  transmission.
#
#  For information on this file format, follow the CIF links at
#  http://www.iucr.org
##########################################################################

data_image0

_cell_length_a                          9.7792
_cell_length_b                          11.3331
_cell_length_c                          15.924
_cell_angle_alpha                       71.042
_cell_angle_beta                        85.29
_cell_angle_gamma                       70.907
_symmetry_space_group_name_H-M          'P 1'
_symmetry_int_tables_number             1
loop_
  _symmetry_equiv_pos_as_xyz
         'x, y, z' 
loop_
  _atom_site_label
  _atom_site_occupancy
  _atom_site_fract_x
  _atom_site_fract_y
  _atom_site_fract_z
  _atom_site_thermal_displace_type
  _atom_site_B_iso_or_equiv
  _atom_site_type_symbol
  _atom_site_charge
         C1        1.0000    0.81360   0.50790   0.58690   Biso      1.000     C          0.0572    
         C2        1.0000    0.55930   0.70450   0.10430   Biso      1.000     C          -0.085923           
         C3        1.0000    0.66960   0.73870   0.13010   Biso      1.000     C          -0.034032           
         C4        1.0000    0.70540   0.69500   0.21870   Biso      1.000     C          -0.092847           
         C5        1.0000    0.62910   0.63090   0.27870   Biso      1.000     C          -0.151078           
         C6        1.0000    0.51730   0.59460   0.25250   Biso      1.000     C          0.077718  
         C7        1.0000    0.43440   0.51430   0.32060   Biso      1.000     C          0.061141999999999995          
         C8        1.0000    0.02600   0.43420   0.45530   Biso      1.000     C          -0.281493           
         C9        1.0000    0.61290   0.27080   0.79240   Biso      1.000     C          0.638827  
         C10       1.0000    0.86830   0.45960   0.67690   Biso      1.000     C          -0.147208           
         C11       1.0000    0.80300   0.38170   0.74320   Biso      1.000     C          -0.094105           
         C12       1.0000    0.68470   0.35700   0.72280   Biso      1.000     C          -0.038508999999999995         
         C13       1.0000    0.63050   0.40360   0.63500   Biso      1.000     C          -0.11451199999999999          
         C14       1.0000    0.69920   0.48350   0.56660   Biso      1.000     C          -0.156973           
         C15       1.0000    0.21190   0.96350   0.05840   Biso      1.000     C          0.67537   
         C16       1.0000    0.87820   0.59700   0.51260   Biso      1.000     C          0.0437    
         C17       1.0000    0.72600   0.92180   0.36150   Biso      1.000     C          -0.2746   
         C18       1.0000    0.70300   0.93730   0.78650   Biso      1.000     C          0.653105  
         C19       1.0000    0.87080   0.80490   0.60060   Biso      1.000     C          -0.15724100000000002          
         C20       1.0000    0.85510   0.85100   0.67350   Biso      1.000     C          -0.112052           
         C21       1.0000    0.72120   0.88090   0.70880   Biso      1.000     C          -0.037805           
         C22       1.0000    0.61080   0.86800   0.67370   Biso      1.000     C          -0.09086799999999999          
         C23       1.0000    0.48680   0.63140   0.16570   Biso      1.000     C          -0.140987           
         C24       1.0000    0.74180   0.82040   0.06270   Biso      1.000     C          0.603565  
         C25       1.0000    0.17690   0.64610   0.26900   Biso      1.000     C          -0.256102           
         C26       1.0000    0.51660   0.36910   0.35670   Biso      1.000     C          0.062585  
         C27       1.0000    0.20570   0.97400   0.15130   Biso      1.000     C          -0.07093200000000001          
         C28       1.0000    0.33080   0.96230   0.19490   Biso      1.000     C          -0.115695           
         C29       1.0000    0.32420   0.95760   0.28360   Biso      1.000     C          -0.13904  
         C30       1.0000    0.19980   0.95490   0.33190   Biso      1.000     C          0.07094600000000001           
         C31       1.0000    0.18020   0.94400   0.43340   Biso      1.000     C          0.024037  
         C32       1.0000    0.10400   0.26400   0.30250   Biso      1.000     C          -0.273753           
         C33       1.0000    0.15030   0.12180   0.79080   Biso      1.000     C          0.653601  
         C34       1.0000    0.27290   0.10490   0.56150   Biso      1.000     C          -0.139279           
         C35       1.0000    0.26930   0.12350   0.64380   Biso      1.000     C          -0.09059  
         C36       1.0000    0.15460   0.10990   0.69950   Biso      1.000     C          -0.053068           
         C37       1.0000    0.62430   0.82270   0.59990   Biso      1.000     C          -0.158393           
         C38       1.0000    0.04330   0.07770   0.67290   Biso      1.000     C          -0.10181  
         C39       1.0000    0.16160   0.07270   0.53490   Biso      1.000     C          0.088782  
         C40       1.0000    0.12980   0.08230   0.43480   Biso      1.000     C          -0.005443           
         C41       1.0000    0.69700   0.22860   0.46660   Biso      1.000     C          -0.26472399999999996          
         C42       1.0000    0.67200   0.15260   0.06500   Biso      1.000     C          0.64498   
         C43       1.0000    0.47250   0.26730   0.25060   Biso      1.000     C          -0.142237           
         C44       1.0000    0.50120   0.22470   0.17920   Biso      1.000     C          -0.081812           
         C45       1.0000    0.63570   0.20620   0.13940   Biso      1.000     C          -0.051816999999999995         
         C46       1.0000    0.73660   0.24960   0.17040   Biso      1.000     C          -0.105298           
         C47       1.0000    0.69950   0.29760   0.24140   Biso      1.000     C          -0.153995           
         C48       1.0000    0.56940   0.30420   0.28240   Biso      1.000     C          0.073104  
         C49       1.0000    0.04680   0.05910   0.59060   Biso      1.000     C          -0.177152           
         C50       1.0000    0.75980   0.78830   0.56400   Biso      1.000     C          0.090382  
         C51       1.0000    0.77340   0.74050   0.48750   Biso      1.000     C          0.036937  
         C52       1.0000    0.07910   0.98400   0.28300   Biso      1.000     C          -0.160325           
         C53       1.0000    0.07770   0.98220   0.19660   Biso      1.000     C          -0.101478           
         C54       1.0000    0.33800   0.74530   0.48520   Biso      1.000     C          -0.281393           
         H1        1.0000    0.70900   0.72800   0.45200   Biso      1.000     H          0.088462  
         H2        1.0000    0.41560   0.60730   0.14660   Biso      1.000     H          0.120822  
         H3        1.0000    0.53400   0.73160   0.04440   Biso      1.000     H          0.114218  
         H4        1.0000    0.78400   0.71020   0.23740   Biso      1.000     H          0.1197    
         H5        1.0000    0.64960   0.60960   0.33880   Biso      1.000     H          0.10522999999999999           
         H6        1.0000    0.39400   0.55400   0.36600   Biso      1.000     H          0.06653200000000001           
         H7        1.0000    0.08920   0.43460   0.49800   Biso      1.000     H          0.13571   
         H8        1.0000    0.07590   0.43270   0.40100   Biso      1.000     H          0.142223  
         H9        1.0000    0.99530   0.35750   0.47820   Biso      1.000     H          0.135997  
         H10       1.0000    0.94640   0.48010   0.69090   Biso      1.000     H          0.114797  
         H11       1.0000    0.84030   0.34670   0.80120   Biso      1.000     H          0.117828  
         H12       1.0000    0.66300   0.51770   0.50840   Biso      1.000     H          0.110099  
         H13       1.0000    0.97400   0.58000   0.53500   Biso      1.000     H          0.055811  
         H14       1.0000    0.67240   0.88970   0.33130   Biso      1.000     H          0.119519  
         H15       1.0000    0.76790   0.98130   0.31860   Biso      1.000     H          0.13139800000000001           
         H16       1.0000    0.66280   0.96710   0.39840   Biso      1.000     H          0.115932  
         H17       1.0000    0.96160   0.78440   0.57580   Biso      1.000     H          0.103407  
         H18       1.0000    0.93310   0.86100   0.69700   Biso      1.000     H          0.117     
         H19       1.0000    0.52050   0.88980   0.69890   Biso      1.000     H          0.110168  
         H20       1.0000    0.54450   0.81610   0.57600   Biso      1.000     H          0.12105   
         H21       1.0000    0.20890   0.71740   0.26950   Biso      1.000     H          0.123072  
         H22       1.0000    0.55200   0.38360   0.62110   Biso      1.000     H          0.116789  
         H23       1.0000    0.38710   0.69240   0.54130   Biso      1.000     H          0.130778  
         H24       1.0000    0.44600   0.33000   0.38900   Biso      1.000     H          0.070615  
         H25       1.0000    0.39570   0.72080   0.43820   Biso      1.000     H          0.114999  
         H26       1.0000    0.24620   0.73170   0.48440   Biso      1.000     H          0.124162  
         H27       1.0000    0.99030   0.00770   0.30950   Biso      1.000     H          0.099357  
         H28       1.0000    0.99430   0.98620   0.17010   Biso      1.000     H          0.12153699999999999           
         H29       1.0000    0.41720   0.95770   0.16490   Biso      1.000     H          0.113633  
         H30       1.0000    0.40520   0.95620   0.31110   Biso      1.000     H          0.109787  
         H31       1.0000    0.08700   0.94200   0.45600   Biso      1.000     H          0.08860599999999999           
         H32       1.0000    0.06600   0.22080   0.27190   Biso      1.000     H          0.128699  
         H33       1.0000    0.15730   0.31520   0.26200   Biso      1.000     H          0.15731099999999998           
         H34       1.0000    0.02530   0.32140   0.32530   Biso      1.000     H          0.13231199999999999           
         H35       1.0000    0.10600   0.63470   0.31370   Biso      1.000     H          0.132575  
         H36       1.0000    0.34970   0.11400   0.52420   Biso      1.000     H          0.11620799999999999           
         H37       1.0000    0.96650   0.06860   0.71020   Biso      1.000     H          0.10641199999999999           
         H38       1.0000    0.97240   0.03760   0.57280   Biso      1.000     H          0.112605  
         H39       1.0000    0.04900   0.14700   0.39700   Biso      1.000     H          0.09246599999999999           
         H40       1.0000    0.62480   0.20390   0.50650   Biso      1.000     H          0.119066  
         H41       1.0000    0.77490   0.22790   0.50000   Biso      1.000     H          0.132775  
         H42       1.0000    0.73360   0.16730   0.43400   Biso      1.000     H          0.10869300000000001           
         H43       1.0000    0.38420   0.27130   0.27810   Biso      1.000     H          0.10881700000000001           
         H44       1.0000    0.42880   0.20700   0.15580   Biso      1.000     H          0.107564  
         H45       1.0000    0.82540   0.24590   0.14360   Biso      1.000     H          0.119986  
         H46       1.0000    0.76490   0.32630   0.26210   Biso      1.000     H          0.108274  
         H47       1.0000    0.34380   0.14510   0.66160   Biso      1.000     H          0.122378  
         H48       1.0000    0.13460   0.66560   0.21170   Biso      1.000     H          0.145002  
         La1       1.0000    0.46104   0.09449   0.91594   Biso      1.000     La          1.933648  
         La2       1.0000    0.90113   0.99316   0.93722   Biso      1.000     La          1.957803  
         O1        1.0000    0.32290   0.97220   0.01430   Biso      1.000     O          -0.680756           
         O2        1.0000    0.20090   0.16460   0.37700   Biso      1.000     O          -0.21860700000000002          
         O3        1.0000    0.25700   0.14290   0.81670   Biso      1.000     O          -0.6501   
         O4        1.0000    0.03870   0.11640   0.83450   Biso      1.000     O          -0.659602           
         O5        1.0000    0.63600   0.35420   0.40780   Biso      1.000     O          -0.191416           
         O6        1.0000    0.56390   0.13450   0.03300   Biso      1.000     O          -0.706815           
         O7        1.0000    0.79530   0.12500   0.03760   Biso      1.000     O          -0.586493           
         O8        1.0000    0.11110   0.94600   0.03130   Biso      1.000     O          -0.630383           
         O9        1.0000    0.29960   0.52580   0.28710   Biso      1.000     O          -0.24854099999999998          
         O10       1.0000    0.87470   0.81100   0.07490   Biso      1.000     O          -0.624106           
         O11       1.0000    0.89250   0.55860   0.43700   Biso      1.000     O          -0.212666           
         O12       1.0000    0.68940   0.18640   0.85710   Biso      1.000     O          -0.7056140000000001           
         O13       1.0000    0.48750   0.28740   0.78170   Biso      1.000     O          -0.590641           
         O14       1.0000    0.83770   0.81480   0.41470   Biso      1.000     O          -0.22236  
         O15       1.0000    0.81000   0.94370   0.81510   Biso      1.000     O          -0.635281           
         O16       1.0000    0.57490   0.97360   0.81260   Biso      1.000     O          -0.632081           
         O17       1.0000    0.67810   0.89950   0.98910   Biso      1.000     O          -0.684446           
         O18       1.0000    0.31580   0.87620   0.47360   Biso      1.000     O          -0.143336 