
##########################################################################
#               Crystallographic Information Format file
#               Produced by PyCifRW module
#
#  This is a CIF file.  CIF has been adopted by the International
#  Union of Crystallography as the standard for data archiving and
#  transmission.
#
#  For information on this file format, follow the CIF links at
#  http://www.iucr.org
##########################################################################

data_image0

_cell_length_a                          9.799
_cell_length_b                          11.272
_cell_length_c                          15.935
_cell_angle_alpha                       70.517
_cell_angle_beta                        84.668
_cell_angle_gamma                       71.046
_symmetry_space_group_name_H-M          'P 1'
_symmetry_int_tables_number             1
loop_
  _symmetry_equiv_pos_as_xyz
         'x, y, z' 
loop_
  _atom_site_label
  _atom_site_occupancy
  _atom_site_fract_x
  _atom_site_fract_y
  _atom_site_fract_z
  _atom_site_thermal_displace_type
  _atom_site_B_iso_or_equiv
  _atom_site_type_symbol
  _atom_site_charge
         C1        1.0000    0.58845   0.56290   0.63653   Biso      1.000     C          -0.119808           
         C2        1.0000    0.46250   0.55682   0.60471   Biso      1.000     C          0.052233  
         C3        1.0000    0.33953   0.56192   0.65832   Biso      1.000     C          -0.125049           
         C4        1.0000    0.34516   0.56793   0.74391   Biso      1.000     C          -0.090366           
         C5        1.0000    0.47123   0.57372   0.77602   Biso      1.000     C          -0.061507           
         C6        1.0000    0.59211   0.57319   0.72123   Biso      1.000     C          -0.075102           
         C7        1.0000    0.45573   0.54834   0.51471   Biso      1.000     C          0.067727  
         C8        1.0000    0.38906   0.76478   0.40926   Biso      1.000     C          -0.172121           
         C9        1.0000    0.47090   0.58413   0.86712   Biso      1.000     C          0.645213  
         C10       1.0000    0.93618   0.73078   0.86655   Biso      1.000     C          0.599957  
         C11       1.0000    0.54484   0.44860   0.48640   Biso      1.000     C          0.070327  
         C12       1.0000    0.62311   0.22898   0.59092   Biso      1.000     C          -0.169225           
         C13       1.0000    0.53684   0.44148   0.39602   Biso      1.000     C          0.051094  
         C14       1.0000    0.65967   0.43708   0.34240   Biso      1.000     C          -0.126066           
         C15       1.0000    0.65438   0.43191   0.25656   Biso      1.000     C          -0.089371           
         C16       1.0000    0.52835   0.42650   0.22416   Biso      1.000     C          -0.061345           
         C17       1.0000    0.40723   0.42688   0.27877   Biso      1.000     C          -0.075859           
         C18       1.0000    0.41060   0.43638   0.36376   Biso      1.000     C          -0.119487           
         C19       1.0000    0.52915   0.41599   0.13307   Biso      1.000     C          0.645862  
         C20       1.0000    0.06400   0.26933   0.13333   Biso      1.000     C          0.598457  
         C21       1.0000    0.60709   0.09635   0.44284   Biso      1.000     C          -0.180822           
         C22       1.0000    0.38484   0.90492   0.55475   Biso      1.000     C          -0.180339           
         C23       1.0000    0.03723   0.14913   0.29206   Biso      1.000     C          -0.089694           
         C24       1.0000    0.96269   0.85092   0.70777   Biso      1.000     C          -0.088203           
         C25       1.0000    0.93970   0.30973   0.75480   Biso      1.000     C          -0.078662           
         C26       1.0000    0.96379   0.26831   0.67963   Biso      1.000     C          -0.130378           
         C27       1.0000    0.06003   0.69089   0.24592   Biso      1.000     C          -0.080018           
         C28       1.0000    0.03584   0.73302   0.32088   Biso      1.000     C          -0.126894           
         C29       1.0000    0.13518   0.97315   0.65928   Biso      1.000     C          0.052303  
         C30       1.0000    0.18608   0.92965   0.74776   Biso      1.000     C          -0.119228           
         C31       1.0000    0.12554   0.84683   0.81584   Biso      1.000     C          -0.081221           
         C32       1.0000    0.00990   0.81168   0.79632   Biso      1.000     C          -0.035442           
         C33       1.0000    0.02725   0.92793   0.63977   Biso      1.000     C          -0.12611  
         C34       1.0000    0.02804   0.38443   0.86649   Biso      1.000     C          0.639291  
         C35       1.0000    0.05074   0.33368   0.78998   Biso      1.000     C          -0.059188           
         C36       1.0000    0.18717   0.31589   0.75056   Biso      1.000     C          -0.084982           
         C37       1.0000    0.20973   0.27913   0.67436   Biso      1.000     C          -0.129183           
         C38       1.0000    0.09964   0.25317   0.63931   Biso      1.000     C          0.052345  
         C39       1.0000    0.14762   0.19795   0.56544   Biso      1.000     C          0.058001  
         C40       1.0000    0.05244   0.37135   0.43553   Biso      1.000     C          -0.17401  
         C41       1.0000    0.18308   0.06587   0.57986   Biso      1.000     C          0.059698  
         C42       1.0000    0.86300   0.02881   0.34049   Biso      1.000     C          0.051475  
         C43       1.0000    0.81305   0.07155   0.25190   Biso      1.000     C          -0.118565           
         C44       1.0000    0.87450   0.15354   0.18380   Biso      1.000     C          -0.082343           
         C45       1.0000    0.99025   0.18838   0.20344   Biso      1.000     C          -0.034142           
         C46       1.0000    0.97188   0.07287   0.36005   Biso      1.000     C          -0.12541  
         C47       1.0000    0.97184   0.61591   0.13421   Biso      1.000     C          0.641244  
         C48       1.0000    0.94918   0.66673   0.21073   Biso      1.000     C          -0.060003           
         C49       1.0000    0.81284   0.68468   0.25026   Biso      1.000     C          -0.084495           
         C50       1.0000    0.79021   0.72224   0.32620   Biso      1.000     C          -0.130536           
         C51       1.0000    0.89992   0.74891   0.36112   Biso      1.000     C          0.052231  
         C52       1.0000    0.85106   0.80477   0.43489   Biso      1.000     C          0.057861  
         C53       1.0000    0.94669   0.63016   0.56417   Biso      1.000     C          -0.177199           
         C54       1.0000    0.81354   0.93714   0.41982   Biso      1.000     C          0.061955  
         O1        1.0000    0.34639   0.64863   0.45729   Biso      1.000     O          -0.195193           
         O2        1.0000    0.57247   0.61449   0.89051   Biso      1.000     O          -0.627749           
         O3        1.0000    0.80198   0.74929   0.85819   Biso      1.000     O          -0.589362           
         O4        1.0000    0.89726   0.42758   0.89071   Biso      1.000     O          -0.621067           
         O5        1.0000    0.65616   0.35040   0.54289   Biso      1.000     O          -0.195798           
         O6        1.0000    0.42782   0.38540   0.10959   Biso      1.000     O          -0.627958           
         O7        1.0000    0.19815   0.25093   0.14170   Biso      1.000     O          -0.588374           
         O8        1.0000    0.10252   0.57285   0.10985   Biso      1.000     O          -0.622796           
         O9        1.0000    0.63637   0.43552   0.08340   Biso      1.000     O          -0.669408           
         O10       1.0000    0.36396   0.56440   0.91702   Biso      1.000     O          -0.669071           
         O11       1.0000    0.01090   0.63959   0.93469   Biso      1.000     O          -0.691223           
         O12       1.0000    0.14065   0.38573   0.90096   Biso      1.000     O          -0.645154           
         O13       1.0000    0.18287   0.28139   0.48548   Biso      1.000     O          -0.181739           
         O14       1.0000    0.25592   0.01328   0.51511   Biso      1.000     O          -0.179733           
         O15       1.0000    0.98916   0.36071   0.06532   Biso      1.000     O          -0.690843           
         O16       1.0000    0.85925   0.61462   0.09973   Biso      1.000     O          -0.645921           
         O17       1.0000    0.81609   0.72106   0.51485   Biso      1.000     O          -0.18124  
         O18       1.0000    0.73763   0.99108   0.48351   Biso      1.000     O          -0.182788           
         La1       1.0000    0.78135   0.54993   0.98539   Biso      1.000     La          1.923839  
         La2       1.0000    0.21862   0.45056   0.01498   Biso      1.000     La          1.923727  
         H1        1.0000    0.87844   0.24747   0.65279   Biso      1.000     H          0.116613  
         H2        1.0000    0.83478   0.32305   0.78744   Biso      1.000     H          0.109514  
         H3        1.0000    0.27273   0.33156   0.78107   Biso      1.000     H          0.108414  
         H4        1.0000    0.31462   0.26497   0.64256   Biso      1.000     H          0.097186  
         H5        1.0000    0.99242   0.95677   0.57035   Biso      1.000     H          0.100547  
         H6        1.0000    0.87464   0.82051   0.69268   Biso      1.000     H          0.115849  
         H7        1.0000    0.16682   0.80991   0.88470   Biso      1.000     H          0.113694  
         H8        1.0000    0.27398   0.95926   0.76410   Biso      1.000     H          0.111273  
         H9        1.0000    0.00042   0.31767   0.40839   Biso      1.000     H          0.090019  
         H10       1.0000    0.97384   0.42196   0.47683   Biso      1.000     H          0.093012  
         H11       1.0000    0.08367   0.44696   0.38052   Biso      1.000     H          0.104952  
         H12       1.0000    0.42992   0.92373   0.60830   Biso      1.000     H          0.098849  
         H13       1.0000    0.36032   0.81072   0.58314   Biso      1.000     H          0.094369  
         H14       1.0000    0.46459   0.90102   0.50164   Biso      1.000     H          0.108162  
         H15       1.0000    0.75782   0.44137   0.36725   Biso      1.000     H          0.104439  
         H16       1.0000    0.74809   0.43305   0.21337   Biso      1.000     H          0.096781  
         H17       1.0000    0.30896   0.42176   0.25373   Biso      1.000     H          0.108783  
         H18       1.0000    0.31664   0.43733   0.40692   Biso      1.000     H          0.105416  
         H19       1.0000    0.12158   0.75359   0.34758   Biso      1.000     H          0.116415  
         H20       1.0000    0.16527   0.67705   0.21360   Biso      1.000     H          0.109291  
         H21       1.0000    0.72725   0.66845   0.22006   Biso      1.000     H          0.108074  
         H22       1.0000    0.68530   0.73616   0.35792   Biso      1.000     H          0.095013  
         H23       1.0000    0.00712   0.04362   0.42943   Biso      1.000     H          0.099713  
         H24       1.0000    0.12566   0.17908   0.30720   Biso      1.000     H          0.115339  
         H25       1.0000    0.83373   0.19020   0.11482   Biso      1.000     H          0.114175  
         H26       1.0000    0.72540   0.04172   0.23545   Biso      1.000     H          0.111044  
         H27       1.0000    0.99998   0.68265   0.59160   Biso      1.000     H          0.091016  
         H28       1.0000    0.02433   0.57998   0.52227   Biso      1.000     H          0.093263  
         H29       1.0000    0.91538   0.55433   0.61893   Biso      1.000     H          0.105801  
         H30       1.0000    0.56326   0.07292   0.39106   Biso      1.000     H          0.098744  
         H31       1.0000    0.62865   0.19168   0.41193   Biso      1.000     H          0.093402  
         H32       1.0000    0.52769   0.10144   0.49614   Biso      1.000     H          0.109345  
         H33       1.0000    0.24076   0.55807   0.63387   Biso      1.000     H          0.104683  
         H34       1.0000    0.25177   0.56723   0.78741   Biso      1.000     H          0.096929  
         H35       1.0000    0.69051   0.57880   0.74571   Biso      1.000     H          0.108777  
         H36       1.0000    0.68188   0.56222   0.59294   Biso      1.000     H          0.10507   
         H37       1.0000    0.52868   0.22441   0.56076   Biso      1.000     H          0.093305  
         H38       1.0000    0.71733   0.14348   0.58833   Biso      1.000     H          0.112995  
         H39       1.0000    0.60018   0.22324   0.66138   Biso      1.000     H          0.098135  
         H40       1.0000    0.29559   0.85419   0.40444   Biso      1.000     H          0.116025  
         H41       1.0000    0.42544   0.76296   0.34162   Biso      1.000     H          0.096556  
         H42       1.0000    0.47841   0.76869   0.44463   Biso      1.000     H          0.091969 