
##########################################################################
#               Crystallographic Information Format file
#               Produced by PyCifRW module
#
#  This is a CIF file.  CIF has been adopted by the International
#  Union of Crystallography as the standard for data archiving and
#  transmission.
#
#  For information on this file format, follow the CIF links at
#  http://www.iucr.org
##########################################################################

data_image0

_cell_length_a                          10.3036
_cell_length_b                          15.2248
_cell_length_c                          20.4069
_cell_angle_alpha                       68.0974
_cell_angle_beta                        75.3772
_cell_angle_gamma                       90
_symmetry_space_group_name_H-M          'P 1'
_symmetry_int_tables_number             1
loop_
  _symmetry_equiv_pos_as_xyz
         'x, y, z' 
loop_
  _atom_site_label
  _atom_site_occupancy
  _atom_site_fract_x
  _atom_site_fract_y
  _atom_site_fract_z
  _atom_site_thermal_displace_type
  _atom_site_B_iso_or_equiv
  _atom_site_type_symbol
  _atom_site_charge
         C1        1.0000    0.23752   0.24471   0.88536   Biso      1.000     C          0.021728  
         C2        1.0000    0.72772   0.71567   0.19136   Biso      1.000     C          -0.17887  
         C3        1.0000    0.48988   0.63338   0.34204   Biso      1.000     C          0.442688  
         C4        1.0000    0.45089   0.59269   0.42382   Biso      1.000     C          -0.054425           
         C5        1.0000    0.35040   0.62690   0.46140   Biso      1.000     C          -0.093435           
         C6        1.0000    0.14540   0.91965   0.92620   Biso      1.000     C          0.6033649999999999  
         C7        1.0000    0.23752   0.86993   0.88536   Biso      1.000     C          0.021745  
         C8        1.0000    0.27228   0.90703   0.80864   Biso      1.000     C          -0.179095           
         C9        1.0000    0.51012   0.97542   0.65796   Biso      1.000     C          0.443346  
         C10       1.0000    0.54911   0.01651   0.57618   Biso      1.000     C          -0.055548           
         C11       1.0000    0.64960   0.08830   0.53860   Biso      1.000     C          -0.093539           
         C12       1.0000    0.57160   0.58035   0.07380   Biso      1.000     C          0.605617  
         C13       1.0000    0.62288   0.63007   0.11464   Biso      1.000     C          0.018430000000000002          
         C14       1.0000    0.76248   0.75529   0.11464   Biso      1.000     C          0.021728  
         C15       1.0000    0.58092   0.59297   0.19136   Biso      1.000     C          -0.173153           
         C16       1.0000    0.62529   0.48349   0.42382   Biso      1.000     C          -0.053579999999999996         
         C17       1.0000    0.68820   0.41170   0.46140   Biso      1.000     C          -0.095911           
         C18       1.0000    0.57160   0.34585   0.07380   Biso      1.000     C          0.6046560000000001  
         C19       1.0000    0.62288   0.25529   0.11464   Biso      1.000     C          0.018183  
         C20       1.0000    0.58092   0.21567   0.19136   Biso      1.000     C          -0.172971           
         C21       1.0000    0.66808   0.13338   0.34204   Biso      1.000     C          0.444075  
         C22       1.0000    0.62529   0.09269   0.42382   Biso      1.000     C          -0.054553           
         C23       1.0000    0.68820   0.12690   0.46140   Biso      1.000     C          -0.094158           
         C24       1.0000    0.14540   0.15415   0.92620   Biso      1.000     C          0.601838  
         C25       1.0000    0.85460   0.08035   0.07380   Biso      1.000     C          0.6033649999999999  
         C26       1.0000    0.27228   0.28433   0.80864   Biso      1.000     C          -0.17887  
         C27       1.0000    0.51012   0.36662   0.65796   Biso      1.000     C          0.442688  
         C28       1.0000    0.66808   0.52458   0.34204   Biso      1.000     C          0.444273  
         C29       1.0000    0.85460   0.84585   0.07380   Biso      1.000     C          0.601838  
         C30       1.0000    0.31180   0.87310   0.53860   Biso      1.000     C          -0.09417  
         C31       1.0000    0.37471   0.90731   0.57618   Biso      1.000     C          -0.054539           
         C32       1.0000    0.48059   0.48059   0.53882   Biso      1.000     C          0.021833  
         C33       1.0000    0.36400   0.36400   0.77200   Biso      1.000     C          0.213367  
         C34       1.0000    0.28857   0.28857   0.92286   Biso      1.000     C          -0.12005199999999999          
         C35       1.0000    0.51941   0.01941   0.46118   Biso      1.000     C          0.022394999999999998          
         C36       1.0000    0.63600   0.13600   0.22800   Biso      1.000     C          0.21261   
         C37       1.0000    0.71143   0.21143   0.07714   Biso      1.000     C          -0.119559           
         C38       1.0000    0.51941   0.51941   0.46118   Biso      1.000     C          0.021834  
         C39       1.0000    0.63600   0.63600   0.22800   Biso      1.000     C          0.21336999999999998           
         C40       1.0000    0.71143   0.71143   0.07714   Biso      1.000     C          -0.120046           
         C41       1.0000    0.48059   0.98059   0.53882   Biso      1.000     C          0.022394999999999998          
         C42       1.0000    0.36400   0.86400   0.77200   Biso      1.000     C          0.21260700000000002           
         C43       1.0000    0.28857   0.78857   0.92286   Biso      1.000     C          -0.119558           
         C44       1.0000    0.31180   0.58830   0.53860   Biso      1.000     C          -0.095929           
         C45       1.0000    0.37471   0.51651   0.57618   Biso      1.000     C          -0.053562           
         C46       1.0000    0.33192   0.47542   0.65796   Biso      1.000     C          0.444271  
         C47       1.0000    0.41908   0.40703   0.80864   Biso      1.000     C          -0.17315  
         C48       1.0000    0.37712   0.36993   0.88536   Biso      1.000     C          0.018434  
         C49       1.0000    0.42840   0.41965   0.92620   Biso      1.000     C          0.605617  
         C50       1.0000    0.35040   0.91170   0.46140   Biso      1.000     C          -0.093552           
         C51       1.0000    0.45089   0.98349   0.42382   Biso      1.000     C          -0.055535           
         C52       1.0000    0.48988   0.02458   0.34204   Biso      1.000     C          0.443345  
         C53       1.0000    0.72772   0.09297   0.19136   Biso      1.000     C          -0.179095           
         C54       1.0000    0.76248   0.13007   0.11464   Biso      1.000     C          0.021751  
         C55       1.0000    0.42840   0.65415   0.92620   Biso      1.000     C          0.6046560000000001  
         C56       1.0000    0.37712   0.74471   0.88536   Biso      1.000     C          0.018186  
         C57       1.0000    0.41908   0.78433   0.80864   Biso      1.000     C          -0.172967           
         C58       1.0000    0.33192   0.86662   0.65796   Biso      1.000     C          0.44407399999999997           
         C59       1.0000    0.54911   0.40731   0.57618   Biso      1.000     C          -0.054425           
         C60       1.0000    0.64960   0.37310   0.53860   Biso      1.000     C          -0.093437           
         Cu1       1.0000    0.61855   0.52527   0.94946   Biso      1.000     Cu          0.8787790000000001  
         Cu2       1.0000    0.93199   0.02527   0.94946   Biso      1.000     Cu          0.847806  
         Cu3       1.0000    0.38145   0.47473   0.05054   Biso      1.000     Cu          0.8787780000000001  
         Cu4       1.0000    0.06801   0.97473   0.05054   Biso      1.000     Cu          0.8478030000000001  
         H1        1.0000    0.26250   0.26250   0.97500   Biso      1.000     H          0.138244  
         H2        1.0000    0.48430   0.75670   0.78240   Biso      1.000     H          0.142514  
         H3        1.0000    0.24110   0.82260   0.56460   Biso      1.000     H          0.141683  
         H4        1.0000    0.76670   0.74330   0.21760   Biso      1.000     H          0.145893  
         H5        1.0000    0.30570   0.67740   0.43540   Biso      1.000     H          0.142056  
         H6        1.0000    0.23330   0.96090   0.78240   Biso      1.000     H          0.146135  
         H7        1.0000    0.69430   0.11280   0.56460   Biso      1.000     H          0.141989  
         H8        1.0000    0.51570   0.53910   0.21760   Biso      1.000     H          0.143013  
         H9        1.0000    0.75890   0.38720   0.43540   Biso      1.000     H          0.142403  
         H10       1.0000    0.51570   0.24330   0.21760   Biso      1.000     H          0.142515  
         H11       1.0000    0.23330   0.25670   0.78240   Biso      1.000     H          0.145893  
         H12       1.0000    0.69430   0.32260   0.56460   Biso      1.000     H          0.142056  
         H13       1.0000    0.76670   0.03910   0.21760   Biso      1.000     H          0.146135  
         H14       1.0000    0.30570   0.88720   0.43540   Biso      1.000     H          0.14199   
         H15       1.0000    0.48430   0.46090   0.78240   Biso      1.000     H          0.143012  
         H16       1.0000    0.24110   0.61280   0.56460   Biso      1.000     H          0.142404  
         H17       1.0000    0.26250   0.76250   0.97500   Biso      1.000     H          0.13819   
         H18       1.0000    0.73750   0.73750   0.02500   Biso      1.000     H          0.138243  
         H19       1.0000    0.73750   0.23750   0.02500   Biso      1.000     H          0.138189  
         H20       1.0000    0.75890   0.17740   0.43540   Biso      1.000     H          0.141682  
         N1        1.0000    0.40390   0.40390   0.69220   Biso      1.000     N          -0.219977           
         N2        1.0000    0.59610   0.09610   0.30780   Biso      1.000     N          -0.219011           
         N3        1.0000    0.40390   0.90390   0.69220   Biso      1.000     N          -0.219011           
         N4        1.0000    0.59610   0.59610   0.30780   Biso      1.000     N          -0.219977           
         O1        1.0000    0.34779   0.41513   0.98520   Biso      1.000     O          -0.539125           
         O2        1.0000    0.54465   0.46238   0.89750   Biso      1.000     O          -0.520898           
         O3        1.0000    0.43579   0.99739   0.30642   Biso      1.000     O          -0.42413599999999996          
         O4        1.0000    0.83299   0.08487   0.01480   Biso      1.000     O          -0.532738           
         O5        1.0000    0.94215   0.03762   0.10250   Biso      1.000     O          -0.514452           
         O6        1.0000    0.56421   0.30381   0.69358   Biso      1.000     O          -0.42394899999999996          
         O7        1.0000    0.16701   0.09967   0.98520   Biso      1.000     O          -0.531678           
         O8        1.0000    0.05785   0.14012   0.89750   Biso      1.000     O          -0.5140279999999999           
         O9        1.0000    0.75779   0.19619   0.30642   Biso      1.000     O          -0.425763           
         O10       1.0000    0.65221   0.40033   0.01480   Biso      1.000     O          -0.538184           
         O11       1.0000    0.45535   0.35988   0.10250   Biso      1.000     O          -0.520506           
         O12       1.0000    0.65221   0.58487   0.01480   Biso      1.000     O          -0.5391239999999999           
         O13       1.0000    0.45535   0.53762   0.10250   Biso      1.000     O          -0.520899           
         O14       1.0000    0.56421   0.00261   0.69358   Biso      1.000     O          -0.42413599999999996          
         O15       1.0000    0.16701   0.91513   0.98520   Biso      1.000     O          -0.532737           
         O16       1.0000    0.05785   0.96238   0.89750   Biso      1.000     O          -0.5144529999999999           
         O17       1.0000    0.43579   0.69619   0.30642   Biso      1.000     O          -0.42394899999999996          
         O18       1.0000    0.83299   0.90033   0.01480   Biso      1.000     O          -0.531679           
         O19       1.0000    0.94215   0.85988   0.10250   Biso      1.000     O          -0.5140279999999999           
         O20       1.0000    0.24221   0.80381   0.69358   Biso      1.000     O          -0.425763           
         O21       1.0000    0.34779   0.59967   0.98520   Biso      1.000     O          -0.538185           
         O22       1.0000    0.54465   0.64012   0.89750   Biso      1.000     O          -0.520505           
         O23       1.0000    0.75779   0.49739   0.30642   Biso      1.000     O          -0.425569           
         O24       1.0000    0.24221   0.50261   0.69358   Biso      1.000     O          -0.425569 