
##########################################################################
#               Crystallographic Information Format file
#               Produced by PyCifRW module
#
#  This is a CIF file.  CIF has been adopted by the International
#  Union of Crystallography as the standard for data archiving and
#  transmission.
#
#  For information on this file format, follow the CIF links at
#  http://www.iucr.org
##########################################################################

data_image0

_cell_length_a                          10.922
_cell_length_b                          14.981
_cell_length_c                          20.4118
_cell_angle_alpha                       111.529
_cell_angle_beta                        105.518
_cell_angle_gamma                       90
_symmetry_space_group_name_H-M          'P 1'
_symmetry_int_tables_number             1
loop_
  _symmetry_equiv_pos_as_xyz
         'x, y, z' 
loop_
  _atom_site_label
  _atom_site_occupancy
  _atom_site_fract_x
  _atom_site_fract_y
  _atom_site_fract_z
  _atom_site_thermal_displace_type
  _atom_site_B_iso_or_equiv
  _atom_site_type_symbol
  _atom_site_charge
         C1        1.0000    0.87533   0.86951   0.11346   Biso      1.000     C          0.017634  
         C2        1.0000    0.08414   0.09356   0.80988   Biso      1.000     C          -0.167918           
         C3        1.0000    0.00528   0.14118   0.65856   Biso      1.000     C          0.445496  
         C4        1.0000    0.96406   0.09886   0.57652   Biso      1.000     C          -0.056004           
         C5        1.0000    0.87084   0.13564   0.53868   Biso      1.000     C          -0.093803           
         C6        1.0000    0.92550   0.15446   0.07260   Biso      1.000     C          0.603356  
         C7        1.0000    0.87533   0.24395   0.11346   Biso      1.000     C          0.018397999999999998          
         C8        1.0000    0.91586   0.28368   0.19012   Biso      1.000     C          -0.167001           
         C9        1.0000    0.99472   0.48262   0.34144   Biso      1.000     C          0.44552200000000003           
         C10       1.0000    0.03594   0.52234   0.42348   Biso      1.000     C          -0.056351           
         C11       1.0000    0.12916   0.59696   0.46132   Biso      1.000     C          -0.095966           
         C12       1.0000    0.35290   0.34554   0.92740   Biso      1.000     C          0.6074149999999999  
         C13       1.0000    0.26187   0.25605   0.88654   Biso      1.000     C          0.014297999999999998          
         C14       1.0000    0.12467   0.13049   0.88654   Biso      1.000     C          0.017634  
         C15       1.0000    0.22574   0.21632   0.80988   Biso      1.000     C          -0.168468           
         C16       1.0000    0.11246   0.97766   0.57652   Biso      1.000     C          -0.058385           
         C17       1.0000    0.16784   0.90304   0.53868   Biso      1.000     C          -0.09179  
         C18       1.0000    0.35290   0.58186   0.92740   Biso      1.000     C          0.6067560000000001  
         C19       1.0000    0.26187   0.63049   0.88654   Biso      1.000     C          0.013746000000000001          
         C20       1.0000    0.22574   0.59356   0.80988   Biso      1.000     C          -0.166802           
         C21       1.0000    0.15328   0.64118   0.65856   Biso      1.000     C          0.44681899999999997           
         C22       1.0000    0.11246   0.59886   0.57652   Biso      1.000     C          -0.057844000000000007         
         C23       1.0000    0.16784   0.63564   0.53868   Biso      1.000     C          -0.094058           
         C24       1.0000    0.92550   0.91814   0.07260   Biso      1.000     C          0.604884  
         C25       1.0000    0.07450   0.84554   0.92740   Biso      1.000     C          0.603355  
         C26       1.0000    0.91586   0.90644   0.19012   Biso      1.000     C          -0.167917           
         C27       1.0000    0.99472   0.85882   0.34144   Biso      1.000     C          0.44549700000000003           
         C28       1.0000    0.15328   0.01738   0.65856   Biso      1.000     C          0.447783  
         C29       1.0000    0.07450   0.08186   0.92740   Biso      1.000     C          0.604883  
         C30       1.0000    0.83216   0.36436   0.46132   Biso      1.000     C          -0.094075           
         C31       1.0000    0.88754   0.40114   0.42348   Biso      1.000     C          -0.057825           
         C32       1.0000    0.98043   0.98043   0.46086   Biso      1.000     C          0.02513   
         C33       1.0000    0.78786   0.78786   0.07572   Biso      1.000     C          -0.115934           
         C34       1.0000    0.86357   0.86357   0.22714   Biso      1.000     C          0.206999  
         C35       1.0000    0.01957   0.51957   0.53914   Biso      1.000     C          0.025584  
         C36       1.0000    0.21214   0.71214   0.92428   Biso      1.000     C          -0.11658900000000001          
         C37       1.0000    0.13643   0.63643   0.77286   Biso      1.000     C          0.206294  
         C38       1.0000    0.01957   0.01957   0.53914   Biso      1.000     C          0.025133000000000003          
         C39       1.0000    0.21214   0.21214   0.92428   Biso      1.000     C          -0.115933           
         C40       1.0000    0.13643   0.13643   0.77286   Biso      1.000     C          0.207006  
         C41       1.0000    0.98043   0.48043   0.46086   Biso      1.000     C          0.025585  
         C42       1.0000    0.78786   0.28786   0.07572   Biso      1.000     C          -0.11659000000000001          
         C43       1.0000    0.86357   0.36357   0.22714   Biso      1.000     C          0.206294  
         C44       1.0000    0.83216   0.09696   0.46132   Biso      1.000     C          -0.091808           
         C45       1.0000    0.88754   0.02234   0.42348   Biso      1.000     C          -0.058365           
         C46       1.0000    0.84672   0.98262   0.34144   Biso      1.000     C          0.44778100000000004           
         C47       1.0000    0.77426   0.78368   0.19012   Biso      1.000     C          -0.168463           
         C48       1.0000    0.73813   0.74395   0.11346   Biso      1.000     C          0.014299000000000001          
         C49       1.0000    0.64710   0.65446   0.07260   Biso      1.000     C          0.607417  
         C50       1.0000    0.87084   0.40304   0.53868   Biso      1.000     C          -0.09598200000000001          
         C51       1.0000    0.96406   0.47766   0.57652   Biso      1.000     C          -0.05633200000000001          
         C52       1.0000    0.00528   0.51738   0.65856   Biso      1.000     C          0.44551899999999994           
         C53       1.0000    0.08414   0.71632   0.80988   Biso      1.000     C          -0.166999           
         C54       1.0000    0.12467   0.75605   0.88654   Biso      1.000     C          0.018397999999999998          
         C55       1.0000    0.64710   0.41814   0.07260   Biso      1.000     C          0.606757  
         C56       1.0000    0.73813   0.36951   0.11346   Biso      1.000     C          0.013748  
         C57       1.0000    0.77426   0.40644   0.19012   Biso      1.000     C          -0.166801           
         C58       1.0000    0.84672   0.35882   0.34144   Biso      1.000     C          0.44681800000000005           
         C59       1.0000    0.03594   0.90114   0.42348   Biso      1.000     C          -0.056001999999999996         
         C60       1.0000    0.12916   0.86436   0.46132   Biso      1.000     C          -0.093805           
         Cu1       1.0000    0.55963   0.47373   0.94746   Biso      1.000     Cu          0.878652  
         Cu2       1.0000    0.88783   0.97373   0.94746   Biso      1.000     Cu          0.848511  
         Cu3       1.0000    0.44037   0.52627   0.05254   Biso      1.000     Cu          0.8786860000000001  
         Cu4       1.0000    0.11217   0.02627   0.05254   Biso      1.000     Cu          0.8484950000000001  
         H1        1.0000    0.76170   0.76170   0.02340   Biso      1.000     H          0.137337  
         H2        1.0000    0.73770   0.46060   0.21660   Biso      1.000     H          0.14132   
         H3        1.0000    0.76650   0.31200   0.43540   Biso      1.000     H          0.140475  
         H4        1.0000    0.02110   0.03940   0.78340   Biso      1.000     H          0.14251   
         H5        1.0000    0.83110   0.18800   0.56460   Biso      1.000     H          0.139405  
         H6        1.0000    0.97890   0.25600   0.21660   Biso      1.000     H          0.141836  
         H7        1.0000    0.16890   0.62340   0.43540   Biso      1.000     H          0.14119500000000001           
         H8        1.0000    0.26230   0.24400   0.78340   Biso      1.000     H          0.141747  
         H9        1.0000    0.23350   0.87660   0.56460   Biso      1.000     H          0.138854  
         H10       1.0000    0.26230   0.53940   0.78340   Biso      1.000     H          0.141323  
         H11       1.0000    0.97890   0.96060   0.21660   Biso      1.000     H          0.142512  
         H12       1.0000    0.16890   0.81200   0.43540   Biso      1.000     H          0.139408  
         H13       1.0000    0.02110   0.74400   0.78340   Biso      1.000     H          0.141834  
         H14       1.0000    0.83110   0.37660   0.56460   Biso      1.000     H          0.141193  
         H15       1.0000    0.73770   0.75600   0.21660   Biso      1.000     H          0.141744  
         H16       1.0000    0.76650   0.12340   0.43540   Biso      1.000     H          0.138856  
         H17       1.0000    0.76170   0.26170   0.02340   Biso      1.000     H          0.137375  
         H18       1.0000    0.23830   0.23830   0.97660   Biso      1.000     H          0.13733499999999998           
         H19       1.0000    0.23830   0.73830   0.97660   Biso      1.000     H          0.137373  
         H20       1.0000    0.23350   0.68800   0.56460   Biso      1.000     H          0.14047300000000001           
         N1        1.0000    0.90350   0.90350   0.30700   Biso      1.000     N          -0.21677  
         N2        1.0000    0.09650   0.59650   0.69300   Biso      1.000     N          -0.216389           
         N3        1.0000    0.90350   0.40350   0.30700   Biso      1.000     N          -0.216389           
         N4        1.0000    0.09650   0.09650   0.69300   Biso      1.000     N          -0.21677  
         O1        1.0000    0.56560   0.64092   0.10226   Biso      1.000     O          -0.5271140000000001           
         O2        1.0000    0.66007   0.59984   0.01196   Biso      1.000     O          -0.5356850000000001           
         O3        1.0000    0.96284   0.48294   0.69348   Biso      1.000     O          -0.424461           
         O4        1.0000    0.96334   0.85908   0.89774   Biso      1.000     O          -0.520606           
         O5        1.0000    0.14811   0.90016   0.98804   Biso      1.000     O          -0.529098           
         O6        1.0000    0.03716   0.78946   0.30652   Biso      1.000     O          -0.42464799999999997          
         O7        1.0000    0.03666   0.96134   0.10226   Biso      1.000     O          -0.521009           
         O8        1.0000    0.85189   0.91212   0.01196   Biso      1.000     O          -0.530247           
         O9        1.0000    0.23064   0.71054   0.69348   Biso      1.000     O          -0.42453  
         O10       1.0000    0.43440   0.53866   0.89774   Biso      1.000     O          -0.527226           
         O11       1.0000    0.33993   0.58788   0.98804   Biso      1.000     O          -0.535551           
         O12       1.0000    0.43440   0.35908   0.89774   Biso      1.000     O          -0.527115           
         O13       1.0000    0.33993   0.40016   0.98804   Biso      1.000     O          -0.535684           
         O14       1.0000    0.03716   0.51706   0.30652   Biso      1.000     O          -0.42446000000000006          
         O15       1.0000    0.03666   0.14092   0.10226   Biso      1.000     O          -0.520605           
         O16       1.0000    0.85189   0.09984   0.01196   Biso      1.000     O          -0.5291   
         O17       1.0000    0.96284   0.21054   0.69348   Biso      1.000     O          -0.424649           
         O18       1.0000    0.96334   0.03866   0.89774   Biso      1.000     O          -0.521009           
         O19       1.0000    0.14811   0.08788   0.98804   Biso      1.000     O          -0.530245           
         O20       1.0000    0.76936   0.28946   0.30652   Biso      1.000     O          -0.424529           
         O21       1.0000    0.56560   0.46134   0.10226   Biso      1.000     O          -0.527224           
         O22       1.0000    0.66007   0.41212   0.01196   Biso      1.000     O          -0.535551           
         O23       1.0000    0.23064   0.98294   0.69348   Biso      1.000     O          -0.42510699999999996          
         O24       1.0000    0.76936   0.01706   0.30652   Biso      1.000     O          -0.425105 