
##########################################################################
#               Crystallographic Information Format file
#               Produced by PyCifRW module
#
#  This is a CIF file.  CIF has been adopted by the International
#  Union of Crystallography as the standard for data archiving and
#  transmission.
#
#  For information on this file format, follow the CIF links at
#  http://www.iucr.org
##########################################################################

data_image0

_cell_length_a                          17.5838
_cell_length_b                          17.5838
_cell_length_c                          17.5838
_cell_angle_alpha                       96.8299
_cell_angle_beta                        96.8299
_cell_angle_gamma                       96.8299
_symmetry_space_group_name_H-M          'P 1'
_symmetry_int_tables_number             1
loop_
  _symmetry_equiv_pos_as_xyz
         'x, y, z' 
loop_
  _atom_site_label
  _atom_site_occupancy
  _atom_site_fract_x
  _atom_site_fract_y
  _atom_site_fract_z
  _atom_site_thermal_displace_type
  _atom_site_B_iso_or_equiv
  _atom_site_type_symbol
  _atom_site_charge
         C1        1.0000    0.65060   0.90890   0.35690   Biso      1.000     C          -0.105444           
         C2        1.0000    0.88290   0.28730   0.66400   Biso      1.000     C          -0.00822  
         C3        1.0000    0.15710   0.24720   0.88810   Biso      1.000     C          -0.14523  
         C4        1.0000    0.09780   0.19100   0.88420   Biso      1.000     C          0.001161  
         C5        1.0000    0.28480   0.37390   0.89290   Biso      1.000     C          -0.206363           
         C6        1.0000    0.34300   0.43260   0.88670   Biso      1.000     C          0.1028    
         C7        1.0000    0.01420   0.20350   0.88030   Biso      1.000     C          0.589435  
         C8        1.0000    0.27100   0.74610   0.88070   Biso      1.000     C          0.588159  
         C9        1.0000    0.35690   0.65060   0.90890   Biso      1.000     C          -0.104726           
         C10       1.0000    0.37480   0.57400   0.90970   Biso      1.000     C          -0.148247           
         C11       1.0000    0.32380   0.51170   0.88740   Biso      1.000     C          0.087156  
         C12       1.0000    0.23230   0.60150   0.85280   Biso      1.000     C          -0.101415           
         C13       1.0000    0.25140   0.52950   0.85710   Biso      1.000     C          -0.142654           
         C14       1.0000    0.28730   0.66400   0.88290   Biso      1.000     C          -0.008241           
         C15       1.0000    0.52950   0.25140   0.85710   Biso      1.000     C          -0.142663           
         C16       1.0000    0.60150   0.23230   0.85280   Biso      1.000     C          -0.101405           
         C17       1.0000    0.51170   0.32380   0.88740   Biso      1.000     C          0.087123  
         C18       1.0000    0.57400   0.37480   0.90970   Biso      1.000     C          -0.148209           
         C19       1.0000    0.85710   0.25140   0.52950   Biso      1.000     C          -0.142575           
         C20       1.0000    0.65060   0.35690   0.90890   Biso      1.000     C          -0.104731           
         C21       1.0000    0.85280   0.23230   0.60150   Biso      1.000     C          -0.101287           
         C22       1.0000    0.90970   0.37480   0.57400   Biso      1.000     C          -0.148259           
         C23       1.0000    0.37390   0.89290   0.28480   Biso      1.000     C          -0.206357           
         C24       1.0000    0.43260   0.88670   0.34300   Biso      1.000     C          0.1027    
         C25       1.0000    0.20350   0.88030   0.01420   Biso      1.000     C          0.589469  
         C26       1.0000    0.74610   0.88070   0.27100   Biso      1.000     C          0.583976  
         C27       1.0000    0.66400   0.28730   0.88290   Biso      1.000     C          -0.008241           
         C28       1.0000    0.57400   0.90970   0.37480   Biso      1.000     C          -0.147782           
         C29       1.0000    0.51170   0.88740   0.32380   Biso      1.000     C          0.087235  
         C30       1.0000    0.60150   0.85280   0.23230   Biso      1.000     C          -0.102306           
         C31       1.0000    0.52950   0.85710   0.25140   Biso      1.000     C          -0.142195           
         C32       1.0000    0.66400   0.88290   0.28730   Biso      1.000     C          -0.003891           
         C33       1.0000    0.88810   0.15710   0.24720   Biso      1.000     C          -0.146156           
         C34       1.0000    0.88420   0.09780   0.19100   Biso      1.000     C          0.004831  
         C35       1.0000    0.89290   0.28480   0.37390   Biso      1.000     C          -0.206172           
         C36       1.0000    0.88670   0.34300   0.43260   Biso      1.000     C          0.102895  
         C37       1.0000    0.88030   0.01420   0.20350   Biso      1.000     C          0.585304  
         C38       1.0000    0.88070   0.27100   0.74610   Biso      1.000     C          0.58817   
         C39       1.0000    0.90890   0.35690   0.65060   Biso      1.000     C          -0.104682           
         C40       1.0000    0.88740   0.32380   0.51170   Biso      1.000     C          0.087077  
         C41       1.0000    0.74610   0.27100   0.88070   Biso      1.000     C          0.588159  
         C42       1.0000    0.20350   0.01420   0.88030   Biso      1.000     C          0.589449  
         C43       1.0000    0.43260   0.34300   0.88670   Biso      1.000     C          0.102803  
         C44       1.0000    0.88030   0.20350   0.01420   Biso      1.000     C          0.589469  
         C45       1.0000    0.88670   0.43260   0.34300   Biso      1.000     C          0.102696  
         C46       1.0000    0.89290   0.37390   0.28480   Biso      1.000     C          -0.206357           
         C47       1.0000    0.88420   0.19100   0.09780   Biso      1.000     C          0.001499  
         C48       1.0000    0.88810   0.24720   0.15710   Biso      1.000     C          -0.145301           
         C49       1.0000    0.41425   0.41425   0.88540   Biso      1.000     C          -0.198744           
         C50       1.0000    0.29655   0.29655   0.89400   Biso      1.000     C          0.081821  
         C51       1.0000    0.23235   0.23235   0.89220   Biso      1.000     C          0.089711  
         C52       1.0000    0.11049   0.11050   0.87941   Biso      1.000     C          -0.141745           
         C53       1.0000    0.88540   0.41425   0.41425   Biso      1.000     C          -0.198701           
         C54       1.0000    0.89400   0.29655   0.29655   Biso      1.000     C          0.081869  
         C55       1.0000    0.89220   0.23235   0.23235   Biso      1.000     C          0.090139  
         C56       1.0000    0.87941   0.11049   0.11049   Biso      1.000     C          -0.142398           
         C57       1.0000    0.41425   0.88540   0.41425   Biso      1.000     C          -0.198736           
         C58       1.0000    0.29655   0.89400   0.29655   Biso      1.000     C          0.08187   
         C59       1.0000    0.23235   0.89220   0.23235   Biso      1.000     C          0.090136  
         C60       1.0000    0.11049   0.87941   0.11049   Biso      1.000     C          -0.142396           
         C61       1.0000    0.88070   0.74610   0.27100   Biso      1.000     C          0.583976  
         C62       1.0000    0.90890   0.65060   0.35690   Biso      1.000     C          -0.105443           
         C63       1.0000    0.90970   0.57400   0.37480   Biso      1.000     C          -0.147782           
         C64       1.0000    0.88740   0.51170   0.32380   Biso      1.000     C          0.087236  
         C65       1.0000    0.37390   0.28480   0.89290   Biso      1.000     C          -0.206364           
         C66       1.0000    0.19100   0.09780   0.88420   Biso      1.000     C          0.001069  
         C67       1.0000    0.24720   0.15710   0.88810   Biso      1.000     C          -0.145183           
         C68       1.0000    0.28730   0.88290   0.66400   Biso      1.000     C          -0.008219           
         C69       1.0000    0.25140   0.85710   0.52950   Biso      1.000     C          -0.142571           
         C70       1.0000    0.23230   0.85280   0.60150   Biso      1.000     C          -0.101287           
         C71       1.0000    0.32380   0.88740   0.51170   Biso      1.000     C          0.08704   
         C72       1.0000    0.37480   0.90970   0.57400   Biso      1.000     C          -0.14822  
         C73       1.0000    0.19100   0.88420   0.09780   Biso      1.000     C          0.001498  
         C74       1.0000    0.35690   0.90890   0.65060   Biso      1.000     C          -0.104688           
         C75       1.0000    0.01420   0.88030   0.20350   Biso      1.000     C          0.585306  
         C76       1.0000    0.34300   0.88670   0.43260   Biso      1.000     C          0.102929  
         C77       1.0000    0.28480   0.89290   0.37390   Biso      1.000     C          -0.206175           
         C78       1.0000    0.09780   0.88420   0.19100   Biso      1.000     C          0.004808  
         C79       1.0000    0.15710   0.88810   0.24720   Biso      1.000     C          -0.146131           
         C80       1.0000    0.88290   0.66400   0.28730   Biso      1.000     C          -0.003893           
         C81       1.0000    0.85710   0.52950   0.25140   Biso      1.000     C          -0.142207           
         C82       1.0000    0.85280   0.60150   0.23230   Biso      1.000     C          -0.102292           
         C83       1.0000    0.27100   0.88070   0.74610   Biso      1.000     C          0.58817   
         C84       1.0000    0.24720   0.88810   0.15710   Biso      1.000     C          -0.145301           
         Cu1       1.0000    0.30717   0.90466   0.90466   Biso      1.000     Cu          0.868797  
         Cu2       1.0000    0.90466   0.30717   0.90466   Biso      1.000     Cu          0.868792  
         Cu3       1.0000    0.90466   0.90466   0.30717   Biso      1.000     Cu          0.836078  
         Cu4       1.0000    0.85178   0.16317   0.85178   Biso      1.000     Cu          0.88301   
         Cu5       1.0000    0.85178   0.85178   0.16317   Biso      1.000     Cu          0.854677  
         Cu6       1.0000    0.16317   0.85178   0.85178   Biso      1.000     Cu          0.883009  
         H1        1.0000    0.07015   0.87370   0.07015   Biso      1.000     H          0.146035  
         H2        1.0000    0.69200   0.92720   0.39530   Biso      1.000     H          0.119204  
         H3        1.0000    0.56750   0.92710   0.42540   Biso      1.000     H          0.106542  
         H4        1.0000    0.60860   0.83020   0.18360   Biso      1.000     H          0.127034  
         H5        1.0000    0.48810   0.83840   0.21310   Biso      1.000     H          0.103209  
         H6        1.0000    0.88810   0.14710   0.29800   Biso      1.000     H          0.128421  
         H7        1.0000    0.89650   0.23530   0.38650   Biso      1.000     H          0.114551  
         H8        1.0000    0.92720   0.39530   0.69200   Biso      1.000     H          0.11869   
         H9        1.0000    0.14710   0.29800   0.88810   Biso      1.000     H          0.128028  
         H10       1.0000    0.83020   0.18360   0.60860   Biso      1.000     H          0.126672  
         H11       1.0000    0.38650   0.89650   0.23530   Biso      1.000     H          0.114393  
         H12       1.0000    0.23530   0.38650   0.89650   Biso      1.000     H          0.114393  
         H13       1.0000    0.39530   0.69200   0.92720   Biso      1.000     H          0.118695  
         H14       1.0000    0.42540   0.56750   0.92710   Biso      1.000     H          0.106324  
         H15       1.0000    0.18360   0.60860   0.83020   Biso      1.000     H          0.126629  
         H16       1.0000    0.21310   0.48810   0.83840   Biso      1.000     H          0.102981  
         H17       1.0000    0.92710   0.42540   0.56750   Biso      1.000     H          0.106283  
         H18       1.0000    0.29800   0.88810   0.14710   Biso      1.000     H          0.128073  
         H19       1.0000    0.83840   0.21310   0.48810   Biso      1.000     H          0.103034  
         H20       1.0000    0.60860   0.18360   0.83020   Biso      1.000     H          0.126628  
         H21       1.0000    0.48810   0.21310   0.83840   Biso      1.000     H          0.102981  
         H22       1.0000    0.45385   0.88360   0.45385   Biso      1.000     H          0.111235  
         H23       1.0000    0.87370   0.07015   0.07015   Biso      1.000     H          0.146036  
         H24       1.0000    0.88360   0.45385   0.45385   Biso      1.000     H          0.111233  
         H25       1.0000    0.07015   0.07015   0.87370   Biso      1.000     H          0.145644  
         H26       1.0000    0.45385   0.45385   0.88360   Biso      1.000     H          0.111225  
         H27       1.0000    0.88810   0.29800   0.14710   Biso      1.000     H          0.128073  
         H28       1.0000    0.92720   0.69200   0.39530   Biso      1.000     H          0.119204  
         H29       1.0000    0.92710   0.56750   0.42540   Biso      1.000     H          0.106542  
         H30       1.0000    0.83020   0.60860   0.18360   Biso      1.000     H          0.127033  
         H31       1.0000    0.83840   0.48810   0.21310   Biso      1.000     H          0.10321   
         H32       1.0000    0.89650   0.38650   0.23530   Biso      1.000     H          0.114393  
         H33       1.0000    0.14710   0.88810   0.29800   Biso      1.000     H          0.128419  
         H34       1.0000    0.69200   0.39530   0.92720   Biso      1.000     H          0.118695  
         H35       1.0000    0.38650   0.23530   0.89650   Biso      1.000     H          0.114392  
         H36       1.0000    0.29800   0.14710   0.88810   Biso      1.000     H          0.128025  
         H37       1.0000    0.21310   0.83840   0.48810   Biso      1.000     H          0.103034  
         H38       1.0000    0.56750   0.42540   0.92710   Biso      1.000     H          0.106321  
         H39       1.0000    0.42540   0.92710   0.56750   Biso      1.000     H          0.106281  
         H40       1.0000    0.39530   0.92720   0.69200   Biso      1.000     H          0.118691  
         H41       1.0000    0.23530   0.89650   0.38650   Biso      1.000     H          0.114552  
         H42       1.0000    0.18360   0.83020   0.60860   Biso      1.000     H          0.126672  
         O1        1.0000    0.79960   0.32330   0.90120   Biso      1.000     O          -0.504973           
         O2        1.0000    0.85710   0.14910   0.95980   Biso      1.000     O          -0.523581           
         O3        1.0000    0.90120   0.79960   0.32330   Biso      1.000     O          -0.497409           
         O4        1.0000    0.19869   0.85642   0.75245   Biso      1.000     O          -0.558692           
         O5        1.0000    0.00628   0.90072   0.27395   Biso      1.000     O          -0.5341   
         O6        1.0000    0.95980   0.85710   0.14910   Biso      1.000     O          -0.51657  
         O7        1.0000    0.32330   0.90120   0.79960   Biso      1.000     O          -0.504922           
         O8        1.0000    0.75245   0.19869   0.85642   Biso      1.000     O          -0.558759           
         O9        1.0000    0.27395   0.00628   0.90072   Biso      1.000     O          -0.541197           
         O10       1.0000    0.14910   0.95980   0.85710   Biso      1.000     O          -0.523672           
         O11       1.0000    0.75245   0.85642   0.19869   Biso      1.000     O          -0.551724           
         O12       1.0000    0.32330   0.79960   0.90120   Biso      1.000     O          -0.504974           
         O13       1.0000    0.14910   0.85710   0.95980   Biso      1.000     O          -0.52358  
         O14       1.0000    0.79960   0.90120   0.32330   Biso      1.000     O          -0.497409           
         O15       1.0000    0.85642   0.19869   0.75245   Biso      1.000     O          -0.558693           
         O16       1.0000    0.90072   0.00628   0.27395   Biso      1.000     O          -0.534099           
         O17       1.0000    0.85710   0.95980   0.14910   Biso      1.000     O          -0.51657  
         O18       1.0000    0.90120   0.32330   0.79960   Biso      1.000     O          -0.504922           
         O19       1.0000    0.19869   0.75245   0.85642   Biso      1.000     O          -0.558759           
         O20       1.0000    0.00628   0.27395   0.90072   Biso      1.000     O          -0.541198           
         O21       1.0000    0.95980   0.14910   0.85710   Biso      1.000     O          -0.523664           
         O22       1.0000    0.90072   0.27395   0.00628   Biso      1.000     O          -0.541222           
         O23       1.0000    0.27395   0.90072   0.00628   Biso      1.000     O          -0.541222           
         O24       1.0000    0.85642   0.75245   0.19869   Biso      1.000     O          -0.551724 