
##########################################################################
#               Crystallographic Information Format file
#               Produced by PyCifRW module
#
#  This is a CIF file.  CIF has been adopted by the International
#  Union of Crystallography as the standard for data archiving and
#  transmission.
#
#  For information on this file format, follow the CIF links at
#  http://www.iucr.org
##########################################################################

data_image0

_cell_length_a                          22.2003
_cell_length_b                          22.2003
_cell_length_c                          7.7298
_cell_angle_alpha                       90
_cell_angle_beta                        90
_cell_angle_gamma                       120
_symmetry_space_group_name_H-M          'P 1'
_symmetry_int_tables_number             1
loop_
  _symmetry_equiv_pos_as_xyz
         'x, y, z' 
loop_
  _atom_site_label
  _atom_site_occupancy
  _atom_site_fract_x
  _atom_site_fract_y
  _atom_site_fract_z
  _atom_site_thermal_displace_type
  _atom_site_B_iso_or_equiv
  _atom_site_type_symbol
  _atom_site_charge
         C1        1.0000    0.48180   0.81250   0.85450   Biso      1.000     C          -0.10819100000000001          
         C2        1.0000    0.18620   0.50450   0.25640   Biso      1.000     C          -0.200678           
         C3        1.0000    0.19020   0.44610   0.80950   Biso      1.000     C          -0.136424           
         C4        1.0000    0.23370   0.43690   0.69530   Biso      1.000     C          -0.111246           
         C5        1.0000    0.68170   0.18620   0.74360   Biso      1.000     C          -0.200677           
         C6        1.0000    0.28930   0.52680   0.97120   Biso      1.000     C          -0.152005           
         C7        1.0000    0.32380   0.42540   0.43580   Biso      1.000     C          -0.45318500000000006          
         C8        1.0000    0.21630   0.48600   0.95390   Biso      1.000     C          0.070844  
         C9        1.0000    0.36110   0.40730   0.32380   Biso      1.000     C          0.20998699999999998           
         C10       1.0000    0.32290   0.36650   0.16730   Biso      1.000     C          0.6352720000000001  
         C11       1.0000    0.63420   0.13980   0.63440   Biso      1.000     C          0.082928  
         C12       1.0000    0.74410   0.19020   0.19050   Biso      1.000     C          -0.136424           
         C13       1.0000    0.06740   0.49410   0.15380   Biso      1.000     C          0.10335799999999999           
         C14       1.0000    0.35050   0.46460   0.59200   Biso      1.000     C          0.381405  
         C15       1.0000    0.30240   0.47190   0.71250   Biso      1.000     C          0.013684  
         C16       1.0000    0.67690   0.16900   0.92030   Biso      1.000     C          0.118605  
         C17       1.0000    0.66930   0.48180   0.14550   Biso      1.000     C          -0.10819100000000001          
         C18       1.0000    0.88590   0.35050   0.40800   Biso      1.000     C          0.38140599999999997           
         C19       1.0000    0.69760   0.52810   0.28750   Biso      1.000     C          0.013643  
         C20       1.0000    0.33070   0.51820   0.85450   Biso      1.000     C          -0.10818900000000001          
         C21       1.0000    0.32310   0.83100   0.07970   Biso      1.000     C          0.118602  
         C22       1.0000    0.64950   0.53540   0.40800   Biso      1.000     C          0.38140799999999997           
         C23       1.0000    0.36580   0.86020   0.36560   Biso      1.000     C          0.08290299999999999           
         C24       1.0000    0.10960   0.48960   0.03150   Biso      1.000     C          -0.189376           
         C25       1.0000    0.13980   0.50560   0.36560   Biso      1.000     C          0.082928  
         C26       1.0000    0.16900   0.49210   0.07970   Biso      1.000     C          0.118621  
         C27       1.0000    0.51820   0.18750   0.14550   Biso      1.000     C          -0.10819400000000001          
         C28       1.0000    0.62000   0.10960   0.96850   Biso      1.000     C          -0.189364           
         C29       1.0000    0.81250   0.33070   0.14550   Biso      1.000     C          -0.108195           
         C30       1.0000    0.49210   0.32310   0.92030   Biso      1.000     C          0.118602  
         C31       1.0000    0.50560   0.36580   0.63440   Biso      1.000     C          0.08290299999999999           
         C32       1.0000    0.57330   0.06740   0.84620   Biso      1.000     C          0.10336300000000001           
         C33       1.0000    0.50450   0.31830   0.74360   Biso      1.000     C          -0.200653           
         C34       1.0000    0.44610   0.25590   0.19050   Biso      1.000     C          -0.136424           
         C35       1.0000    0.95640   0.32290   0.83270   Biso      1.000     C          0.635273  
         C36       1.0000    0.43690   0.20320   0.30470   Biso      1.000     C          -0.111246           
         C37       1.0000    0.95380   0.36110   0.67620   Biso      1.000     C          0.20998699999999998           
         C38       1.0000    0.52680   0.23750   0.02880   Biso      1.000     C          -0.152    
         C39       1.0000    0.73030   0.21630   0.04610   Biso      1.000     C          0.070844  
         C40       1.0000    0.42540   0.10160   0.56420   Biso      1.000     C          -0.45318500000000006          
         C41       1.0000    0.48600   0.26970   0.04610   Biso      1.000     C          0.070844  
         C42       1.0000    0.40730   0.04620   0.67620   Biso      1.000     C          0.20998699999999998           
         C43       1.0000    0.36650   0.04360   0.83270   Biso      1.000     C          0.6352720000000001  
         C44       1.0000    0.89840   0.32380   0.56420   Biso      1.000     C          -0.453186           
         C45       1.0000    0.49410   0.42670   0.84620   Biso      1.000     C          0.10335599999999999           
         C46       1.0000    0.48960   0.38000   0.96850   Biso      1.000     C          -0.189356           
         C47       1.0000    0.46460   0.11410   0.40800   Biso      1.000     C          0.381405  
         C48       1.0000    0.47190   0.16950   0.28750   Biso      1.000     C          0.013684  
         C49       1.0000    0.76250   0.28930   0.02880   Biso      1.000     C          -0.151999           
         C50       1.0000    0.79680   0.23370   0.30470   Biso      1.000     C          -0.111246           
         C51       1.0000    0.89040   0.51040   0.96850   Biso      1.000     C          -0.189383           
         C52       1.0000    0.31830   0.81380   0.25640   Biso      1.000     C          -0.200653           
         C53       1.0000    0.83050   0.30240   0.28750   Biso      1.000     C          0.013684  
         C54       1.0000    0.50790   0.67690   0.07970   Biso      1.000     C          0.118602  
         C55       1.0000    0.18750   0.66930   0.85450   Biso      1.000     C          -0.10819100000000001          
         C56       1.0000    0.81380   0.49550   0.74360   Biso      1.000     C          -0.200679           
         C57       1.0000    0.71070   0.47320   0.02880   Biso      1.000     C          -0.152    
         C58       1.0000    0.49440   0.63420   0.36560   Biso      1.000     C          0.08290299999999999           
         C59       1.0000    0.25590   0.80980   0.80950   Biso      1.000     C          -0.13643  
         C60       1.0000    0.49550   0.68170   0.25640   Biso      1.000     C          -0.200653           
         C61       1.0000    0.76630   0.56310   0.30470   Biso      1.000     C          -0.1112   
         C62       1.0000    0.52810   0.83050   0.71250   Biso      1.000     C          0.013643  
         C63       1.0000    0.86020   0.49440   0.63440   Biso      1.000     C          0.082928  
         C64       1.0000    0.55390   0.74410   0.80950   Biso      1.000     C          -0.13643  
         C65       1.0000    0.56310   0.79680   0.69530   Biso      1.000     C          -0.1112   
         C66       1.0000    0.80980   0.55390   0.19050   Biso      1.000     C          -0.136431           
         C67       1.0000    0.47320   0.76250   0.97120   Biso      1.000     C          -0.152001           
         C68       1.0000    0.57460   0.89840   0.43580   Biso      1.000     C          -0.453186           
         C69       1.0000    0.51400   0.73030   0.95390   Biso      1.000     C          0.070845  
         C70       1.0000    0.59270   0.95380   0.32380   Biso      1.000     C          0.20998699999999998           
         C71       1.0000    0.63350   0.95640   0.16730   Biso      1.000     C          0.6352720000000001  
         C72       1.0000    0.50590   0.57330   0.15380   Biso      1.000     C          0.10335499999999999           
         C73       1.0000    0.53540   0.88590   0.59200   Biso      1.000     C          0.38140799999999997           
         C74       1.0000    0.67620   0.57460   0.56420   Biso      1.000     C          -0.453186           
         C75       1.0000    0.51040   0.62000   0.03150   Biso      1.000     C          -0.189356           
         C76       1.0000    0.16950   0.69760   0.71250   Biso      1.000     C          0.013643  
         C77       1.0000    0.20320   0.76630   0.69530   Biso      1.000     C          -0.1112   
         C78       1.0000    0.93260   0.50590   0.84620   Biso      1.000     C          0.10336600000000001           
         C79       1.0000    0.23750   0.71070   0.97120   Biso      1.000     C          -0.152    
         C80       1.0000    0.83100   0.50790   0.92030   Biso      1.000     C          0.118622  
         C81       1.0000    0.10160   0.67620   0.43580   Biso      1.000     C          -0.453187           
         C82       1.0000    0.26970   0.78370   0.95390   Biso      1.000     C          0.070845  
         C83       1.0000    0.78370   0.51400   0.04610   Biso      1.000     C          0.070844  
         C84       1.0000    0.04360   0.67710   0.16730   Biso      1.000     C          0.635273  
         C85       1.0000    0.67710   0.63350   0.83270   Biso      1.000     C          0.6352720000000001  
         C86       1.0000    0.42670   0.93260   0.15380   Biso      1.000     C          0.10335499999999999           
         C87       1.0000    0.04620   0.63890   0.32380   Biso      1.000     C          0.20998699999999998           
         C88       1.0000    0.11410   0.64950   0.59200   Biso      1.000     C          0.38140799999999997           
         C89       1.0000    0.63890   0.59270   0.67620   Biso      1.000     C          0.20998699999999998           
         C90       1.0000    0.38000   0.89040   0.03150   Biso      1.000     C          -0.189356           
         F1        1.0000    0.40030   0.04370   0.98020   Biso      1.000     F          -0.22875900000000002          
         F2        1.0000    0.67750   0.69250   0.83750   Biso      1.000     F          -0.202993           
         F3        1.0000    0.25760   0.35140   0.15110   Biso      1.000     F          -0.195452           
         F4        1.0000    0.98500   0.67750   0.16250   Biso      1.000     F          -0.202993           
         F5        1.0000    0.64860   0.90620   0.15110   Biso      1.000     F          -0.195452           
         F6        1.0000    0.09380   0.74240   0.15110   Biso      1.000     F          -0.195452           
         F7        1.0000    0.59970   0.95630   0.01980   Biso      1.000     F          -0.22875900000000002          
         F8        1.0000    0.30750   0.98500   0.83750   Biso      1.000     F          -0.202993           
         F9        1.0000    0.74240   0.64860   0.84890   Biso      1.000     F          -0.195452           
         F10       1.0000    0.01500   0.32250   0.83750   Biso      1.000     F          -0.202993           
         F11       1.0000    0.90620   0.25760   0.84890   Biso      1.000     F          -0.195452           
         F12       1.0000    0.95630   0.35660   0.98020   Biso      1.000     F          -0.22875900000000002          
         F13       1.0000    0.32250   0.30750   0.16250   Biso      1.000     F          -0.202993           
         F14       1.0000    0.69250   0.01500   0.16250   Biso      1.000     F          -0.202993           
         F15       1.0000    0.35660   0.40030   0.01980   Biso      1.000     F          -0.22875900000000002          
         F16       1.0000    0.04370   0.64340   0.01980   Biso      1.000     F          -0.22875900000000002          
         F17       1.0000    0.64340   0.59970   0.98020   Biso      1.000     F          -0.22875900000000002          
         F18       1.0000    0.35140   0.09380   0.84890   Biso      1.000     F          -0.195452           
         H1        1.0000    0.77120   0.48820   0.70350   Biso      1.000     H          0.128251  
         H2        1.0000    0.53350   0.02770   0.88450   Biso      1.000     H          0.08915   
         H3        1.0000    0.61230   0.09730   0.08470   Biso      1.000     H          0.129947  
         H4        1.0000    0.84850   0.48780   0.51760   Biso      1.000     H          0.087738  
         H5        1.0000    0.90270   0.51500   0.08470   Biso      1.000     H          0.129948  
         H6        1.0000    0.80850   0.21390   0.39530   Biso      1.000     H          0.11731   
         H7        1.0000    0.86690   0.27790   0.59290   Biso      1.000     H          0.139128  
         H8        1.0000    0.78610   0.59460   0.39530   Biso      1.000     H          0.117307  
         H9        1.0000    0.74990   0.30890   0.93960   Biso      1.000     H          0.116351  
         H10       1.0000    0.69110   0.44100   0.93960   Biso      1.000     H          0.116351  
         H11       1.0000    0.71800   0.14280   0.21350   Biso      1.000     H          0.11661500000000001           
         H12       1.0000    0.72210   0.58900   0.59290   Biso      1.000     H          0.139128  
         H13       1.0000    0.71700   0.22880   0.70350   Biso      1.000     H          0.128251  
         H14       1.0000    0.63930   0.15150   0.51760   Biso      1.000     H          0.087738  
         H15       1.0000    0.97230   0.50580   0.88450   Biso      1.000     H          0.08915   
         H16       1.0000    0.85720   0.57520   0.21350   Biso      1.000     H          0.11661600000000001           
         H17       1.0000    0.62140   0.45660   0.13140   Biso      1.000     H          0.106465  
         H18       1.0000    0.54340   0.16480   0.13140   Biso      1.000     H          0.106466  
         H19       1.0000    0.30890   0.55900   0.06040   Biso      1.000     H          0.116351  
         H20       1.0000    0.09730   0.48500   0.91530   Biso      1.000     H          0.129948  
         H21       1.0000    0.50580   0.53350   0.11550   Biso      1.000     H          0.089151  
         H22       1.0000    0.58900   0.86690   0.40710   Biso      1.000     H          0.139128  
         H23       1.0000    0.44100   0.74990   0.06040   Biso      1.000     H          0.116351  
         H24       1.0000    0.59460   0.80850   0.60470   Biso      1.000     H          0.117307  
         H25       1.0000    0.57520   0.71800   0.78650   Biso      1.000     H          0.11661600000000001           
         H26       1.0000    0.48820   0.71700   0.29650   Biso      1.000     H          0.128249  
         H27       1.0000    0.02770   0.49420   0.11550   Biso      1.000     H          0.089151  
         H28       1.0000    0.37860   0.54340   0.86860   Biso      1.000     H          0.106465  
         H29       1.0000    0.28300   0.77120   0.29650   Biso      1.000     H          0.128249  
         H30       1.0000    0.28200   0.85720   0.78650   Biso      1.000     H          0.11661600000000001           
         H31       1.0000    0.19150   0.78610   0.60470   Biso      1.000     H          0.117307  
         H32       1.0000    0.25010   0.69110   0.06040   Biso      1.000     H          0.116351  
         H33       1.0000    0.13310   0.72210   0.40710   Biso      1.000     H          0.139128  
         H34       1.0000    0.46650   0.97230   0.11550   Biso      1.000     H          0.089151  
         H35       1.0000    0.38770   0.90270   0.91530   Biso      1.000     H          0.129946  
         H36       1.0000    0.36070   0.84850   0.48240   Biso      1.000     H          0.08774   
         H37       1.0000    0.27790   0.41100   0.40710   Biso      1.000     H          0.139128  
         H38       1.0000    0.16480   0.62140   0.86860   Biso      1.000     H          0.106465  
         H39       1.0000    0.21390   0.40540   0.60470   Biso      1.000     H          0.11731   
         H40       1.0000    0.83520   0.37860   0.13140   Biso      1.000     H          0.106466  
         H41       1.0000    0.51220   0.36070   0.51760   Biso      1.000     H          0.08774   
         H42       1.0000    0.51180   0.28300   0.70350   Biso      1.000     H          0.128249  
         H43       1.0000    0.42480   0.28200   0.21350   Biso      1.000     H          0.11661500000000001           
         H44       1.0000    0.40540   0.19150   0.39530   Biso      1.000     H          0.11731   
         H45       1.0000    0.55900   0.25010   0.93960   Biso      1.000     H          0.116351  
         H46       1.0000    0.41100   0.13310   0.59290   Biso      1.000     H          0.139128  
         H47       1.0000    0.48780   0.63930   0.48240   Biso      1.000     H          0.087739  
         H48       1.0000    0.49420   0.46650   0.88450   Biso      1.000     H          0.089151  
         H49       1.0000    0.45660   0.83520   0.86860   Biso      1.000     H          0.106465  
         H50       1.0000    0.51500   0.61230   0.91530   Biso      1.000     H          0.129946  
         H51       1.0000    0.15150   0.51220   0.48240   Biso      1.000     H          0.087738  
         H52       1.0000    0.22880   0.51180   0.29650   Biso      1.000     H          0.128251  
         H53       1.0000    0.14280   0.42480   0.78650   Biso      1.000     H          0.11661500000000001           
         H54       1.0000    0.48500   0.38770   0.08470   Biso      1.000     H          0.129946  
         Mn1       1.0000    0.00000   0.50000   0.50000   Biso      1.000     Mn          0.666665  
         Mn2       1.0000    0.50000   0.00000   0.50000   Biso      1.000     Mn          0.666664  
         Mn3       1.0000    0.50000   0.50000   0.50000   Biso      1.000     Mn          0.66666   
         N1        1.0000    0.50180   0.58060   0.32140   Biso      1.000     N          -0.18818  
         N2        1.0000    0.92120   0.50180   0.67860   Biso      1.000     N          -0.188186           
         N3        1.0000    0.41940   0.92120   0.32140   Biso      1.000     N          -0.188181           
         N4        1.0000    0.58060   0.07880   0.67860   Biso      1.000     N          -0.188185           
         N5        1.0000    0.07880   0.49820   0.32140   Biso      1.000     N          -0.188185           
         N6        1.0000    0.49820   0.41940   0.67860   Biso      1.000     N          -0.18818  
         O1        1.0000    0.99910   0.57660   0.33260   Biso      1.000     O          -0.40074499999999996          
         O2        1.0000    0.57660   0.57750   0.66740   Biso      1.000     O          -0.40074299999999996          
         O3        1.0000    0.58570   0.50480   0.36360   Biso      1.000     O          -0.413153           
         O4        1.0000    0.41430   0.49520   0.63640   Biso      1.000     O          -0.413153           
         O5        1.0000    0.42340   0.42250   0.33260   Biso      1.000     O          -0.40074299999999996          
         O6        1.0000    0.49520   0.08090   0.36360   Biso      1.000     O          -0.413154           
         O7        1.0000    0.42250   0.99910   0.66740   Biso      1.000     O          -0.400744           
         O8        1.0000    0.57750   0.00090   0.33260   Biso      1.000     O          -0.400744           
         O9        1.0000    0.50480   0.91910   0.63640   Biso      1.000     O          -0.413154           
         O10       1.0000    0.91910   0.41430   0.36360   Biso      1.000     O          -0.413154           
         O11       1.0000    0.08090   0.58570   0.63640   Biso      1.000     O          -0.413154           
         O12       1.0000    0.00090   0.42340   0.66740   Biso      1.000     O          -0.40074499999999996 