
##########################################################################
#               Crystallographic Information Format file
#               Produced by PyCifRW module
#
#  This is a CIF file.  CIF has been adopted by the International
#  Union of Crystallography as the standard for data archiving and
#  transmission.
#
#  For information on this file format, follow the CIF links at
#  http://www.iucr.org
##########################################################################

data_image0

_cell_length_a                          24.799
_cell_length_b                          13.263
_cell_length_c                          14.971
_cell_angle_alpha                       90
_cell_angle_beta                        96.635
_cell_angle_gamma                       90
_symmetry_space_group_name_H-M          'P 1'
_symmetry_int_tables_number             1
loop_
  _symmetry_equiv_pos_as_xyz
         'x, y, z' 
loop_
  _atom_site_label
  _atom_site_occupancy
  _atom_site_fract_x
  _atom_site_fract_y
  _atom_site_fract_z
  _atom_site_thermal_displace_type
  _atom_site_B_iso_or_equiv
  _atom_site_type_symbol
  _atom_site_charge
         C1        1.0000    0.24950   0.93380   0.92610   Biso      1.000     C          0.630029  
         C2        1.0000    0.57030   0.72840   0.54260   Biso      1.000     C          0.580717  
         C3        1.0000    0.66220   0.47240   0.38610   Biso      1.000     C          -0.161971           
         C4        1.0000    0.63160   0.39960   0.33670   Biso      1.000     C          0.080441  
         C5        1.0000    0.65350   0.35350   0.26560   Biso      1.000     C          -0.146123           
         C6        1.0000    0.70590   0.37560   0.24690   Biso      1.000     C          -0.018683           
         C7        1.0000    0.75050   0.06620   0.07390   Biso      1.000     C          0.630029  
         C8        1.0000    0.45720   0.56320   0.60660   Biso      1.000     C          -0.147268           
         C9        1.0000    0.78510   0.99300   0.13040   Biso      1.000     C          -0.021939           
         C10       1.0000    0.79410   0.87560   0.25310   Biso      1.000     C          -0.018683           
         C11       1.0000    0.84650   0.85350   0.23440   Biso      1.000     C          -0.146122           
         C12       1.0000    0.86840   0.89960   0.16330   Biso      1.000     C          0.080441  
         C13       1.0000    0.83780   0.97240   0.11390   Biso      1.000     C          -0.161971           
         C14       1.0000    0.77260   0.82620   0.33350   Biso      1.000     C          0.654367  
         C15       1.0000    0.92260   0.86880   0.13960   Biso      1.000     C          0.085848  
         C16       1.0000    0.76330   0.94330   0.20050   Biso      1.000     C          -0.126361           
         C17       1.0000    0.50630   0.59410   0.57860   Biso      1.000     C          -0.097959           
         C18       1.0000    0.52070   0.69390   0.58230   Biso      1.000     C          -0.027874           
         C19       1.0000    0.48730   0.76310   0.61810   Biso      1.000     C          -0.100387           
         C20       1.0000    0.07030   0.22840   0.54260   Biso      1.000     C          0.580717  
         C21       1.0000    0.51270   0.23690   0.38190   Biso      1.000     C          -0.100386           
         C22       1.0000    0.56160   0.26780   0.35440   Biso      1.000     C          -0.149135           
         C23       1.0000    0.57740   0.36880   0.36040   Biso      1.000     C          0.085848  
         C24       1.0000    0.72740   0.32620   0.16650   Biso      1.000     C          0.654367  
         C25       1.0000    0.25050   0.43380   0.57390   Biso      1.000     C          0.630029  
         C26       1.0000    0.28510   0.50700   0.63040   Biso      1.000     C          -0.021938           
         C27       1.0000    0.26330   0.55670   0.70050   Biso      1.000     C          -0.126369           
         C28       1.0000    0.29410   0.62440   0.75310   Biso      1.000     C          -0.018676           
         C29       1.0000    0.34650   0.64650   0.73440   Biso      1.000     C          -0.146123           
         C30       1.0000    0.36840   0.60040   0.66330   Biso      1.000     C          0.080441  
         C31       1.0000    0.33780   0.52760   0.61390   Biso      1.000     C          -0.161971           
         C32       1.0000    0.27260   0.67380   0.83350   Biso      1.000     C          0.654366  
         C33       1.0000    0.42260   0.63120   0.63960   Biso      1.000     C          0.085853  
         C34       1.0000    0.43840   0.73220   0.64560   Biso      1.000     C          -0.149135           
         C35       1.0000    0.93840   0.76780   0.14560   Biso      1.000     C          -0.149135           
         C36       1.0000    0.98730   0.73690   0.11810   Biso      1.000     C          -0.100386           
         C37       1.0000    0.02070   0.80610   0.08230   Biso      1.000     C          -0.027883           
         C38       1.0000    0.00630   0.90590   0.07860   Biso      1.000     C          -0.097952           
         C39       1.0000    0.57030   0.27160   0.04260   Biso      1.000     C          0.580717  
         C40       1.0000    0.92970   0.77160   0.45740   Biso      1.000     C          0.580717  
         C41       1.0000    0.24950   0.06620   0.42610   Biso      1.000     C          0.630029  
         C42       1.0000    0.21490   0.99300   0.36960   Biso      1.000     C          -0.021938           
         C43       1.0000    0.23670   0.94330   0.29950   Biso      1.000     C          -0.126369           
         C44       1.0000    0.20590   0.87560   0.24690   Biso      1.000     C          -0.018676           
         C45       1.0000    0.15350   0.85350   0.26560   Biso      1.000     C          -0.146123           
         C46       1.0000    0.13160   0.89960   0.33670   Biso      1.000     C          0.080441  
         C47       1.0000    0.16220   0.97240   0.38610   Biso      1.000     C          -0.161971           
         C48       1.0000    0.22740   0.82620   0.16650   Biso      1.000     C          0.654366  
         C49       1.0000    0.07740   0.86880   0.36040   Biso      1.000     C          0.085848  
         C50       1.0000    0.06160   0.76780   0.35440   Biso      1.000     C          -0.149135           
         C51       1.0000    0.01270   0.73690   0.38190   Biso      1.000     C          -0.100386           
         C52       1.0000    0.97930   0.80610   0.41770   Biso      1.000     C          -0.027883           
         C53       1.0000    0.99370   0.90590   0.42140   Biso      1.000     C          -0.097952           
         C54       1.0000    0.45720   0.43680   0.10660   Biso      1.000     C          -0.147268           
         C55       1.0000    0.95720   0.06320   0.60660   Biso      1.000     C          -0.147268           
         C56       1.0000    0.50630   0.40590   0.07860   Biso      1.000     C          -0.097959           
         C57       1.0000    0.48730   0.23690   0.11810   Biso      1.000     C          -0.100387           
         C58       1.0000    0.95720   0.93680   0.10660   Biso      1.000     C          -0.147263           
         C59       1.0000    0.07030   0.77160   0.04260   Biso      1.000     C          0.580717  
         C60       1.0000    0.73670   0.44330   0.29950   Biso      1.000     C          -0.126361           
         C61       1.0000    0.71490   0.49300   0.36960   Biso      1.000     C          -0.021939           
         C62       1.0000    0.74950   0.56620   0.42610   Biso      1.000     C          0.630029  
         C63       1.0000    0.25050   0.56620   0.07390   Biso      1.000     C          0.630029  
         C64       1.0000    0.28510   0.49300   0.13040   Biso      1.000     C          -0.021938           
         C65       1.0000    0.26330   0.44330   0.20050   Biso      1.000     C          -0.126369           
         C66       1.0000    0.29410   0.37560   0.25310   Biso      1.000     C          -0.018676           
         C67       1.0000    0.34650   0.35350   0.23440   Biso      1.000     C          -0.146123           
         C68       1.0000    0.36840   0.39960   0.16330   Biso      1.000     C          0.080441  
         C69       1.0000    0.33780   0.47240   0.11390   Biso      1.000     C          -0.161971           
         C70       1.0000    0.27260   0.32620   0.33350   Biso      1.000     C          0.654366  
         C71       1.0000    0.42260   0.36880   0.13960   Biso      1.000     C          0.085853  
         C72       1.0000    0.43840   0.26780   0.14560   Biso      1.000     C          -0.149135           
         C73       1.0000    0.52070   0.30610   0.08230   Biso      1.000     C          -0.027874           
         C74       1.0000    0.00630   0.09410   0.57860   Biso      1.000     C          -0.097959           
         C75       1.0000    0.04280   0.93680   0.39340   Biso      1.000     C          -0.147263           
         C76       1.0000    0.73670   0.55670   0.79950   Biso      1.000     C          -0.126369           
         C77       1.0000    0.22740   0.17380   0.66650   Biso      1.000     C          0.654367  
         C78       1.0000    0.47930   0.30610   0.41770   Biso      1.000     C          -0.027883           
         C79       1.0000    0.49370   0.40590   0.42140   Biso      1.000     C          -0.097952           
         C80       1.0000    0.07740   0.13120   0.86040   Biso      1.000     C          0.085848  
         C81       1.0000    0.06160   0.23220   0.85440   Biso      1.000     C          -0.149135           
         C82       1.0000    0.54280   0.43680   0.39340   Biso      1.000     C          -0.147263           
         C83       1.0000    0.71490   0.50700   0.86960   Biso      1.000     C          -0.021938           
         C84       1.0000    0.66220   0.52760   0.88610   Biso      1.000     C          -0.161971           
         C85       1.0000    0.01270   0.26310   0.88190   Biso      1.000     C          -0.100386           
         C86       1.0000    0.42970   0.72840   0.95740   Biso      1.000     C          0.580717  
         C87       1.0000    0.92970   0.22840   0.95740   Biso      1.000     C          0.580717  
         C88       1.0000    0.97930   0.19390   0.91770   Biso      1.000     C          -0.027883           
         C89       1.0000    0.54280   0.56320   0.89340   Biso      1.000     C          -0.147268           
         C90       1.0000    0.72740   0.67380   0.66650   Biso      1.000     C          0.654366  
         C91       1.0000    0.99370   0.09410   0.92140   Biso      1.000     C          -0.097952           
         C92       1.0000    0.49370   0.59410   0.92140   Biso      1.000     C          -0.097959           
         C93       1.0000    0.47930   0.69390   0.91770   Biso      1.000     C          -0.027874           
         C94       1.0000    0.57740   0.63120   0.86040   Biso      1.000     C          0.085853  
         C95       1.0000    0.51270   0.76310   0.88190   Biso      1.000     C          -0.100387           
         C96       1.0000    0.04280   0.06320   0.89340   Biso      1.000     C          -0.147263           
         C97       1.0000    0.75050   0.93380   0.57390   Biso      1.000     C          0.630029  
         C98       1.0000    0.63160   0.60040   0.83670   Biso      1.000     C          0.080441  
         C99       1.0000    0.56160   0.73220   0.85440   Biso      1.000     C          -0.149135           
         C100      1.0000    0.74950   0.43380   0.92610   Biso      1.000     C          0.630029  
         C101      1.0000    0.70590   0.62440   0.74690   Biso      1.000     C          -0.018676           
         C102      1.0000    0.93840   0.23220   0.64560   Biso      1.000     C          -0.149135           
         C103      1.0000    0.42970   0.27160   0.45740   Biso      1.000     C          0.580717  
         C104      1.0000    0.92260   0.13120   0.63960   Biso      1.000     C          0.085853  
         C105      1.0000    0.77260   0.17380   0.83350   Biso      1.000     C          0.654367  
         C106      1.0000    0.20590   0.12440   0.74690   Biso      1.000     C          -0.018683           
         C107      1.0000    0.78510   0.00700   0.63040   Biso      1.000     C          -0.021939           
         C108      1.0000    0.15350   0.14650   0.76560   Biso      1.000     C          -0.146123           
         C109      1.0000    0.83780   0.02760   0.61390   Biso      1.000     C          -0.161971           
         C110      1.0000    0.86840   0.10040   0.66330   Biso      1.000     C          0.080441  
         C111      1.0000    0.65350   0.64650   0.76560   Biso      1.000     C          -0.146123           
         C112      1.0000    0.02070   0.19390   0.58230   Biso      1.000     C          -0.027874           
         C113      1.0000    0.84650   0.14650   0.73440   Biso      1.000     C          -0.146122           
         C114      1.0000    0.79410   0.12440   0.75310   Biso      1.000     C          -0.018683           
         C115      1.0000    0.21490   0.00700   0.86960   Biso      1.000     C          -0.021939           
         C116      1.0000    0.13160   0.10040   0.83670   Biso      1.000     C          0.080441  
         C117      1.0000    0.16220   0.02760   0.88610   Biso      1.000     C          -0.161971           
         C118      1.0000    0.76330   0.05670   0.70050   Biso      1.000     C          -0.126361           
         C119      1.0000    0.23670   0.05670   0.79950   Biso      1.000     C          -0.126361           
         C120      1.0000    0.98730   0.26310   0.61810   Biso      1.000     C          -0.100387           
         H1        1.0000    0.22780   0.45640   0.21130   Biso      1.000     H          0.128199  
         H2        1.0000    0.36730   0.30710   0.27000   Biso      1.000     H          0.124121  
         H3        1.0000    0.05230   0.99530   0.89700   Biso      1.000     H          0.115424  
         H4        1.0000    0.35290   0.50780   0.06920   Biso      1.000     H          0.128556  
         H5        1.0000    0.99770   0.33040   0.62370   Biso      1.000     H          0.119706  
         H6        1.0000    0.49770   0.16960   0.12370   Biso      1.000     H          0.119706  
         H7        1.0000    0.97070   0.04680   0.94280   Biso      1.000     H          0.116011  
         H8        1.0000    0.52930   0.45320   0.05720   Biso      1.000     H          0.116011  
         H9        1.0000    0.44770   0.50470   0.10300   Biso      1.000     H          0.115424  
         H10       1.0000    0.00230   0.33040   0.87630   Biso      1.000     H          0.119706  
         H11       1.0000    0.05230   0.00470   0.39700   Biso      1.000     H          0.115424  
         H12       1.0000    0.27220   0.95640   0.28870   Biso      1.000     H          0.128199  
         H13       1.0000    0.14710   0.99220   0.93080   Biso      1.000     H          0.128556  
         H14       1.0000    0.13270   0.80710   0.23000   Biso      1.000     H          0.124121  
         H15       1.0000    0.14710   0.00780   0.43080   Biso      1.000     H          0.128556  
         H16       1.0000    0.13270   0.19290   0.73000   Biso      1.000     H          0.124121  
         H17       1.0000    0.08410   0.72060   0.33170   Biso      1.000     H          0.117936  
         H18       1.0000    0.27220   0.04360   0.78870   Biso      1.000     H          0.128199  
         H19       1.0000    0.00230   0.66960   0.37630   Biso      1.000     H          0.119706  
         H20       1.0000    0.41590   0.22060   0.16830   Biso      1.000     H          0.117936  
         H21       1.0000    0.08410   0.27940   0.83170   Biso      1.000     H          0.117936  
         H22       1.0000    0.02930   0.95320   0.05720   Biso      1.000     H          0.116011  
         H23       1.0000    0.35290   0.49220   0.56920   Biso      1.000     H          0.128556  
         H24       1.0000    0.72780   0.95640   0.21130   Biso      1.000     H          0.128199  
         H25       1.0000    0.47070   0.54680   0.94280   Biso      1.000     H          0.116011  
         H26       1.0000    0.77220   0.45640   0.28870   Biso      1.000     H          0.128199  
         H27       1.0000    0.55230   0.49530   0.89700   Biso      1.000     H          0.115424  
         H28       1.0000    0.63270   0.30710   0.23000   Biso      1.000     H          0.124121  
         H29       1.0000    0.36730   0.69290   0.77000   Biso      1.000     H          0.124121  
         H30       1.0000    0.50230   0.83040   0.87630   Biso      1.000     H          0.119706  
         H31       1.0000    0.77220   0.54360   0.78870   Biso      1.000     H          0.128199  
         H32       1.0000    0.97070   0.95320   0.44280   Biso      1.000     H          0.116011  
         H33       1.0000    0.50230   0.16960   0.37630   Biso      1.000     H          0.119706  
         H34       1.0000    0.41590   0.77940   0.66830   Biso      1.000     H          0.117936  
         H35       1.0000    0.49770   0.83040   0.62370   Biso      1.000     H          0.119706  
         H36       1.0000    0.55230   0.50470   0.39700   Biso      1.000     H          0.115424  
         H37       1.0000    0.44770   0.49530   0.60300   Biso      1.000     H          0.115424  
         H38       1.0000    0.72780   0.04360   0.71130   Biso      1.000     H          0.128199  
         H39       1.0000    0.52930   0.54680   0.55720   Biso      1.000     H          0.116011  
         H40       1.0000    0.86730   0.80710   0.27000   Biso      1.000     H          0.124121  
         H41       1.0000    0.85290   0.00780   0.06920   Biso      1.000     H          0.128556  
         H42       1.0000    0.02930   0.04680   0.55720   Biso      1.000     H          0.116011  
         H43       1.0000    0.94770   0.99530   0.60300   Biso      1.000     H          0.115424  
         H44       1.0000    0.91590   0.27940   0.66830   Biso      1.000     H          0.117936  
         H45       1.0000    0.94770   0.00470   0.10300   Biso      1.000     H          0.115424  
         H46       1.0000    0.63270   0.69290   0.73000   Biso      1.000     H          0.124121  
         H47       1.0000    0.58410   0.77940   0.83170   Biso      1.000     H          0.117936  
         H48       1.0000    0.58410   0.22060   0.33170   Biso      1.000     H          0.117936  
         H49       1.0000    0.99770   0.66960   0.12370   Biso      1.000     H          0.119706  
         H50       1.0000    0.64710   0.50780   0.43080   Biso      1.000     H          0.128556  
         H51       1.0000    0.86730   0.19290   0.77000   Biso      1.000     H          0.124121  
         H52       1.0000    0.91590   0.72060   0.16830   Biso      1.000     H          0.117936  
         H53       1.0000    0.22780   0.54360   0.71130   Biso      1.000     H          0.128199  
         H54       1.0000    0.64710   0.49220   0.93080   Biso      1.000     H          0.128556  
         H55       1.0000    0.85290   0.99220   0.56920   Biso      1.000     H          0.128557  
         H56       1.0000    0.47070   0.45320   0.44280   Biso      1.000     H          0.116011  
         La1       1.0000    0.67011   0.79215   0.46936   Biso      1.000     La          1.919017  
         La2       1.0000    0.17011   0.70785   0.96936   Biso      1.000     La          1.919017  
         La3       1.0000    0.32989   0.20785   0.53064   Biso      1.000     La          1.919017  
         La4       1.0000    0.82989   0.29215   0.03064   Biso      1.000     La          1.919017  
         La5       1.0000    0.32989   0.79215   0.03064   Biso      1.000     La          1.919017  
         La6       1.0000    0.82989   0.70785   0.53064   Biso      1.000     La          1.919017  
         La7       1.0000    0.67011   0.20785   0.96936   Biso      1.000     La          1.919017  
         La8       1.0000    0.17011   0.29215   0.46936   Biso      1.000     La          1.919017  
         O1        1.0000    0.29936   0.05340   0.43630   Biso      1.000     O          -0.565236           
         O2        1.0000    0.22684   0.13980   0.46180   Biso      1.000     O          -0.703747           
         O3        1.0000    0.27489   0.84860   0.15230   Biso      1.000     O          -0.668636           
         O4        1.0000    0.69728   0.26530   0.12360   Biso      1.000     O          -0.604059           
         O5        1.0000    0.77489   0.34860   0.15230   Biso      1.000     O          -0.668636           
         O6        1.0000    0.72684   0.63980   0.46180   Biso      1.000     O          -0.703747           
         O7        1.0000    0.79936   0.55340   0.43630   Biso      1.000     O          -0.565236           
         O8        1.0000    0.19728   0.76530   0.12360   Biso      1.000     O          -0.604059           
         O9        1.0000    0.91598   0.68070   0.45330   Biso      1.000     O          -0.623107           
         O10       1.0000    0.90199   0.83680   0.49370   Biso      1.000     O          -0.637892           
         O11       1.0000    0.59801   0.66320   0.50630   Biso      1.000     O          -0.637892           
         O12       1.0000    0.58402   0.18070   0.04670   Biso      1.000     O          -0.623107           
         O13       1.0000    0.72511   0.15140   0.84770   Biso      1.000     O          -0.668636           
         O14       1.0000    0.77316   0.86020   0.53820   Biso      1.000     O          -0.703747           
         O15       1.0000    0.70064   0.94660   0.56370   Biso      1.000     O          -0.565236           
         O16       1.0000    0.40199   0.66320   0.99370   Biso      1.000     O          -0.637892           
         O17       1.0000    0.41598   0.81930   0.95330   Biso      1.000     O          -0.623107           
         O18       1.0000    0.69728   0.73470   0.62360   Biso      1.000     O          -0.604059           
         O19       1.0000    0.77489   0.65140   0.65230   Biso      1.000     O          -0.668636           
         O20       1.0000    0.72684   0.36020   0.96180   Biso      1.000     O          -0.703747           
         O21       1.0000    0.79936   0.44660   0.93630   Biso      1.000     O          -0.565236           
         O22       1.0000    0.90199   0.16320   0.99370   Biso      1.000     O          -0.637892           
         O23       1.0000    0.91598   0.31930   0.95330   Biso      1.000     O          -0.623107           
         O24       1.0000    0.19728   0.23470   0.62360   Biso      1.000     O          -0.604059           
         O25       1.0000    0.27489   0.15140   0.65230   Biso      1.000     O          -0.668636           
         O26       1.0000    0.22684   0.86020   0.96180   Biso      1.000     O          -0.703747           
         O27       1.0000    0.29936   0.94660   0.93630   Biso      1.000     O          -0.565236           
         O28       1.0000    0.80272   0.23470   0.87640   Biso      1.000     O          -0.604059           
         O29       1.0000    0.59801   0.33680   0.00630   Biso      1.000     O          -0.637892           
         O30       1.0000    0.08402   0.31930   0.54670   Biso      1.000     O          -0.623107           
         O31       1.0000    0.20064   0.44660   0.56370   Biso      1.000     O          -0.565236           
         O32       1.0000    0.30272   0.26530   0.37640   Biso      1.000     O          -0.604059           
         O33       1.0000    0.22511   0.34860   0.34770   Biso      1.000     O          -0.668636           
         O34       1.0000    0.27316   0.63980   0.03820   Biso      1.000     O          -0.703747           
         O35       1.0000    0.20064   0.55340   0.06370   Biso      1.000     O          -0.565236           
         O36       1.0000    0.09801   0.83680   0.00630   Biso      1.000     O          -0.637892           
         O37       1.0000    0.08402   0.68070   0.04670   Biso      1.000     O          -0.623107           
         O38       1.0000    0.80272   0.76530   0.37640   Biso      1.000     O          -0.604059           
         O39       1.0000    0.72511   0.84860   0.34770   Biso      1.000     O          -0.668636           
         O40       1.0000    0.77316   0.13980   0.03820   Biso      1.000     O          -0.703747           
         O41       1.0000    0.70064   0.05340   0.06370   Biso      1.000     O          -0.565236           
         O42       1.0000    0.41598   0.18070   0.45330   Biso      1.000     O          -0.623107           
         O43       1.0000    0.58402   0.81930   0.54670   Biso      1.000     O          -0.623107           
         O44       1.0000    0.30272   0.73470   0.87640   Biso      1.000     O          -0.604059           
         O45       1.0000    0.22511   0.65140   0.84770   Biso      1.000     O          -0.668636           
         O46       1.0000    0.27316   0.36020   0.53820   Biso      1.000     O          -0.703747           
         O47       1.0000    0.09801   0.16320   0.50630   Biso      1.000     O          -0.637892           
         O48       1.0000    0.40199   0.33680   0.49370   Biso      1.000     O          -0.637892 