
##########################################################################
#               Crystallographic Information Format file
#               Produced by PyCifRW module
#
#  This is a CIF file.  CIF has been adopted by the International
#  Union of Crystallography as the standard for data archiving and
#  transmission.
#
#  For information on this file format, follow the CIF links at
#  http://www.iucr.org
##########################################################################

data_image0

_cell_length_a                          8.562
_cell_length_b                          8.839
_cell_length_c                          16.904
_cell_angle_alpha                       82.238
_cell_angle_beta                        89.592
_cell_angle_gamma                       78.252
_symmetry_space_group_name_H-M          'P 1'
_symmetry_int_tables_number             1
loop_
  _symmetry_equiv_pos_as_xyz
         'x, y, z' 
loop_
  _atom_site_label
  _atom_site_occupancy
  _atom_site_fract_x
  _atom_site_fract_y
  _atom_site_fract_z
  _atom_site_thermal_displace_type
  _atom_site_B_iso_or_equiv
  _atom_site_type_symbol
  _atom_site_charge
         B1        1.0000    0.82520   0.23430   0.87720   Biso      1.000     B          0.508875  
         B2        1.0000    0.17480   0.76570   0.12280   Biso      1.000     B          0.508875  
         C1        1.0000    0.92730   0.52880   0.57100   Biso      1.000     C          -0.24055300000000002          
         C2        1.0000    0.15120   0.13620   0.20720   Biso      1.000     C          -0.031009           
         C3        1.0000    0.57900   0.48490   0.71130   Biso      1.000     C          -0.01662  
         C4        1.0000    0.98980   0.02030   0.15650   Biso      1.000     C          0.11667000000000001           
         C5        1.0000    0.40250   0.82580   0.93840   Biso      1.000     C          -0.06118200000000001          
         C6        1.0000    0.10290   0.24970   0.93660   Biso      1.000     C          -0.101651           
         C7        1.0000    0.79220   0.65620   0.08020   Biso      1.000     C          -0.065592           
         C8        1.0000    0.76060   0.99900   0.81300   Biso      1.000     C          -0.08886000000000001          
         C9        1.0000    0.83960   0.37420   0.38110   Biso      1.000     C          0.5955020000000001  
         C10       1.0000    0.57410   0.44960   0.83870   Biso      1.000     C          0.10466600000000001           
         C11       1.0000    0.92330   0.43750   0.44310   Biso      1.000     C          -0.14494300000000002          
         C12       1.0000    0.16040   0.62580   0.61890   Biso      1.000     C          0.5955020000000001  
         C13       1.0000    0.77130   0.30600   0.01920   Biso      1.000     C          0.1286    
         C14       1.0000    0.84930   0.46650   0.51560   Biso      1.000     C          0.30285   
         C15       1.0000    0.15070   0.53350   0.48440   Biso      1.000     C          0.30285300000000004           
         C16       1.0000    0.70550   0.37070   0.73700   Biso      1.000     C          -0.07020499999999999          
         C17       1.0000    0.07270   0.47120   0.42900   Biso      1.000     C          -0.24055500000000002          
         C18       1.0000    0.42590   0.55040   0.16130   Biso      1.000     C          0.10466600000000001           
         C19       1.0000    0.35940   0.86470   0.01140   Biso      1.000     C          -0.087868           
         C20       1.0000    0.42100   0.51510   0.28870   Biso      1.000     C          -0.01662  
         C21       1.0000    0.07670   0.56250   0.55690   Biso      1.000     C          -0.14494500000000002          
         C22       1.0000    0.20780   0.34380   0.91980   Biso      1.000     C          -0.065571           
         C23       1.0000    0.59750   0.17420   0.06160   Biso      1.000     C          -0.06118200000000001          
         C24       1.0000    0.98460   0.57540   0.16330   Biso      1.000     C          0.149207  
         C25       1.0000    0.29450   0.62930   0.26300   Biso      1.000     C          -0.07020499999999999          
         C26       1.0000    0.22870   0.69400   0.98080   Biso      1.000     C          0.128599  
         C27       1.0000    0.84880   0.86380   0.79280   Biso      1.000     C          -0.031001           
         C28       1.0000    0.01020   0.97970   0.84350   Biso      1.000     C          0.11667000000000001           
         C29       1.0000    0.23940   0.00100   0.18700   Biso      1.000     C          -0.088851           
         C30       1.0000    0.64060   0.13530   0.98860   Biso      1.000     C          -0.087868           
         C31       1.0000    0.89710   0.75030   0.06340   Biso      1.000     C          -0.10163  
         C32       1.0000    0.01540   0.42460   0.83670   Biso      1.000     C          0.149207  
         Cd1       1.0000    0.75854   0.32394   0.21271   Biso      1.000     Cd          0.775177  
         Cd2       1.0000    0.24146   0.67606   0.78729   Biso      1.000     Cd          0.775177  
         H1        1.0000    0.54440   0.46020   0.89100   Biso      1.000     H          0.080492  
         H2        1.0000    0.60140   0.06480   0.96200   Biso      1.000     H          0.11552899999999999           
         H3        1.0000    0.84060   0.37510   0.01600   Biso      1.000     H          0.089736  
         H4        1.0000    0.10360   0.00230   0.86220   Biso      1.000     H          0.08132   
         H5        1.0000    0.11320   0.16570   0.97710   Biso      1.000     H          0.11258800000000001           
         H6        1.0000    0.55280   0.52430   0.65810   Biso      1.000     H          0.131474  
         H7        1.0000    0.52300   0.13390   0.09380   Biso      1.000     H          0.10644300000000001           
         H8        1.0000    0.95050   0.48320   0.79490   Biso      1.000     H          0.09500399999999999           
         H9        1.0000    0.30360   0.33440   0.94740   Biso      1.000     H          0.09711399999999999           
         H10       1.0000    0.78070   0.31810   0.70500   Biso      1.000     H          0.132905  
         H11       1.0000    0.80830   0.79040   0.76910   Biso      1.000     H          0.12370199999999999           
         H12       1.0000    0.65090   0.03360   0.80610   Biso      1.000     H          0.12467400000000001           
         H13       1.0000    0.33690   0.58670   0.50660   Biso      1.000     H          0.401041  
         H14       1.0000    0.45560   0.53980   0.10900   Biso      1.000     H          0.080492  
         H15       1.0000    0.34910   0.96640   0.19390   Biso      1.000     H          0.12467400000000001           
         H16       1.0000    0.88680   0.83430   0.02290   Biso      1.000     H          0.11258599999999999           
         H17       1.0000    0.44720   0.47570   0.34190   Biso      1.000     H          0.131474  
         H18       1.0000    0.04950   0.51680   0.20510   Biso      1.000     H          0.09500399999999999           
         H19       1.0000    0.39860   0.93520   0.03800   Biso      1.000     H          0.11552899999999999           
         H20       1.0000    0.19170   0.20960   0.23090   Biso      1.000     H          0.12370199999999999           
         H21       1.0000    0.89640   0.99770   0.13780   Biso      1.000     H          0.08132   
         H22       1.0000    0.47700   0.86610   0.90620   Biso      1.000     H          0.10644300000000001           
         H23       1.0000    0.15940   0.62490   0.98400   Biso      1.000     H          0.089736  
         H24       1.0000    0.69640   0.66560   0.05260   Biso      1.000     H          0.097116  
         H25       1.0000    0.66310   0.41330   0.49340   Biso      1.000     H          0.401041  
         H26       1.0000    0.87790   0.54830   0.61880   Biso      1.000     H          0.12793   
         H27       1.0000    0.12210   0.45170   0.38120   Biso      1.000     H          0.12793   
         H28       1.0000    0.21930   0.68190   0.29500   Biso      1.000     H          0.132905  
         N1        1.0000    0.31970   0.71810   0.91890   Biso      1.000     N          -0.29629099999999997          
         N2        1.0000    0.84680   0.54520   0.14340   Biso      1.000     N          -0.278985           
         N3        1.0000    0.24660   0.78000   0.03900   Biso      1.000     N          -0.195895           
         N4        1.0000    0.99420   0.14790   0.18730   Biso      1.000     N          -0.27207  
         N5        1.0000    0.02260   0.69850   0.11760   Biso      1.000     N          -0.197708           
         N6        1.0000    0.13470   0.92460   0.15450   Biso      1.000     N          -0.192185           
         N7        1.0000    0.15320   0.45480   0.85660   Biso      1.000     N          -0.278987           
         N8        1.0000    0.75340   0.22000   0.96100   Biso      1.000     N          -0.195895           
         N9        1.0000    0.70310   0.34620   0.81940   Biso      1.000     N          -0.20909899999999998          
         N10       1.0000    0.49520   0.53360   0.77600   Biso      1.000     N          -0.27863000000000004          
         N11       1.0000    0.86530   0.07540   0.84550   Biso      1.000     N          -0.192184           
         N12       1.0000    0.97740   0.30150   0.88240   Biso      1.000     N          -0.197707           
         N13       1.0000    0.00580   0.85210   0.81270   Biso      1.000     N          -0.272071           
         N14       1.0000    0.68030   0.28190   0.08110   Biso      1.000     N          -0.29629099999999997          
         N15       1.0000    0.29690   0.65380   0.18060   Biso      1.000     N          -0.20909899999999998          
         N16       1.0000    0.50480   0.46640   0.22400   Biso      1.000     N          -0.27863000000000004          
         O1        1.0000    0.90390   0.36760   0.31410   Biso      1.000     O          -0.56763  
         O2        1.0000    0.28890   0.66650   0.60180   Biso      1.000     O          -0.58877  
         O3        1.0000    0.70270   0.43560   0.53310   Biso      1.000     O          -0.51578  
         O4        1.0000    0.71110   0.33350   0.39820   Biso      1.000     O          -0.58877  
         O5        1.0000    0.29730   0.56440   0.46690   Biso      1.000     O          -0.51578  
         O6        1.0000    0.09610   0.63240   0.68590   Biso      1.000     O          -0.56763 