
##########################################################################
#               Crystallographic Information Format file
#               Produced by PyCifRW module
#
#  This is a CIF file.  CIF has been adopted by the International
#  Union of Crystallography as the standard for data archiving and
#  transmission.
#
#  For information on this file format, follow the CIF links at
#  http://www.iucr.org
##########################################################################

data_image0

_cell_length_a                          10.2151
_cell_length_b                          13.117
_cell_length_c                          14.136
_cell_angle_alpha                       90
_cell_angle_beta                        90
_cell_angle_gamma                       90
_symmetry_space_group_name_H-M          'P 1'
_symmetry_int_tables_number             1
loop_
  _symmetry_equiv_pos_as_xyz
         'x, y, z' 
loop_
  _atom_site_label
  _atom_site_occupancy
  _atom_site_fract_x
  _atom_site_fract_y
  _atom_site_fract_z
  _atom_site_thermal_displace_type
  _atom_site_B_iso_or_equiv
  _atom_site_type_symbol
  _atom_site_charge
         C1        1.0000    0.31370   0.34710   0.02290   Biso      1.000     C          -0.101006           
         C2        1.0000    0.68190   0.59310   0.23390   Biso      1.000     C          0.638916  
         C3        1.0000    0.30860   0.65090   0.24910   Biso      1.000     C          -0.122909           
         C4        1.0000    0.32090   0.55250   0.22200   Biso      1.000     C          -0.116316           
         C5        1.0000    0.45140   0.52050   0.21630   Biso      1.000     C          -0.103798           
         C6        1.0000    0.53690   0.59510   0.23810   Biso      1.000     C          -0.1223   
         C7        1.0000    0.92800   0.94300   0.13430   Biso      1.000     C          0.642761  
         C8        1.0000    0.18910   0.71260   0.25620   Biso      1.000     C          0.640177  
         C9        1.0000    0.59550   0.11570   0.89680   Biso      1.000     C          0.61775   
         C10       1.0000    0.90290   0.10660   0.03630   Biso      1.000     C          -0.094576           
         C11       1.0000    0.70490   0.09560   0.96130   Biso      1.000     C          -0.116554           
         C12       1.0000    0.68910   0.78740   0.74380   Biso      1.000     C          0.640176  
         C13       1.0000    0.18190   0.90690   0.76610   Biso      1.000     C          0.638915  
         C14       1.0000    0.80860   0.84910   0.75090   Biso      1.000     C          -0.122908           
         C15       1.0000    0.82090   0.94750   0.77800   Biso      1.000     C          -0.116316           
         C16       1.0000    0.86410   0.01350   0.06670   Biso      1.000     C          -0.12558  
         C17       1.0000    0.95140   0.97950   0.78370   Biso      1.000     C          -0.103798           
         C18       1.0000    0.20490   0.40440   0.03870   Biso      1.000     C          -0.116546           
         C19       1.0000    0.36410   0.48650   0.93330   Biso      1.000     C          -0.125596           
         C20       1.0000    0.07200   0.44300   0.36570   Biso      1.000     C          0.642762  
         C21       1.0000    0.40450   0.61570   0.60320   Biso      1.000     C          0.61775   
         C22       1.0000    0.13590   0.51350   0.43330   Biso      1.000     C          -0.125595           
         C23       1.0000    0.09710   0.60660   0.46370   Biso      1.000     C          -0.09456  
         C24       1.0000    0.18630   0.65290   0.52290   Biso      1.000     C          -0.101003           
         C25       1.0000    0.29510   0.59560   0.53870   Biso      1.000     C          -0.116547           
         C26       1.0000    0.40290   0.39340   0.96370   Biso      1.000     C          -0.094558           
         C27       1.0000    0.31090   0.28740   0.75620   Biso      1.000     C          0.640176  
         C28       1.0000    0.19140   0.34910   0.74910   Biso      1.000     C          -0.122908           
         C29       1.0000    0.17910   0.44750   0.72200   Biso      1.000     C          -0.116316           
         C30       1.0000    0.04860   0.47950   0.71630   Biso      1.000     C          -0.103798           
         C31       1.0000    0.96310   0.40490   0.73810   Biso      1.000     C          -0.122299           
         C32       1.0000    0.42800   0.55700   0.86570   Biso      1.000     C          0.642763  
         C33       1.0000    0.09550   0.38430   0.10320   Biso      1.000     C          0.617749  
         C34       1.0000    0.81810   0.40690   0.73390   Biso      1.000     C          0.638915  
         C35       1.0000    0.03690   0.90490   0.76190   Biso      1.000     C          -0.1223   
         C36       1.0000    0.81370   0.15290   0.97710   Biso      1.000     C          -0.100994           
         C37       1.0000    0.90450   0.88430   0.39680   Biso      1.000     C          0.61775   
         C38       1.0000    0.57200   0.05700   0.63430   Biso      1.000     C          0.642761  
         C39       1.0000    0.46310   0.09510   0.26190   Biso      1.000     C          -0.122324           
         C40       1.0000    0.54860   0.02050   0.28370   Biso      1.000     C          -0.103774           
         C41       1.0000    0.69140   0.15090   0.25090   Biso      1.000     C          -0.122909           
         C42       1.0000    0.31810   0.09310   0.26610   Biso      1.000     C          0.638917  
         C43       1.0000    0.67910   0.05250   0.27800   Biso      1.000     C          -0.116318           
         C44       1.0000    0.79510   0.90440   0.46130   Biso      1.000     C          -0.116554           
         C45       1.0000    0.68630   0.84710   0.47710   Biso      1.000     C          -0.100997           
         C46       1.0000    0.59710   0.89340   0.53630   Biso      1.000     C          -0.094574           
         C47       1.0000    0.63590   0.98650   0.56670   Biso      1.000     C          -0.125581           
         C48       1.0000    0.81090   0.21260   0.24380   Biso      1.000     C          0.640177  
         H1        1.0000    0.52360   0.95490   0.30060   Biso      1.000     H          0.133095  
         H2        1.0000    0.98200   0.13630   0.05360   Biso      1.000     H          0.14007   
         H3        1.0000    0.75000   0.01040   0.29150   Biso      1.000     H          0.127216  
         H4        1.0000    0.67350   0.78290   0.45070   Biso      1.000     H          0.135416  
         H5        1.0000    0.97640   0.04510   0.80060   Biso      1.000     H          0.133097  
         H6        1.0000    0.75000   0.98960   0.79150   Biso      1.000     H          0.127216  
         H7        1.0000    0.82650   0.21710   0.95070   Biso      1.000     H          0.135416  
         H8        1.0000    0.47640   0.45490   0.19940   Biso      1.000     H          0.133097  
         H9        1.0000    0.51800   0.86370   0.55360   Biso      1.000     H          0.14007   
         H10       1.0000    0.25000   0.51040   0.20850   Biso      1.000     H          0.127216  
         H11       1.0000    0.32650   0.28290   0.04930   Biso      1.000     H          0.135416  
         H12       1.0000    0.48200   0.36370   0.94640   Biso      1.000     H          0.140069  
         H13       1.0000    0.02360   0.54510   0.69940   Biso      1.000     H          0.133097  
         H14       1.0000    0.25000   0.48960   0.70850   Biso      1.000     H          0.127216  
         H15       1.0000    0.17350   0.71710   0.54930   Biso      1.000     H          0.135416  
         H16       1.0000    0.01800   0.63630   0.44640   Biso      1.000     H          0.140068  
         O1        1.0000    0.72960   0.51080   0.20310   Biso      1.000     O          -0.545057           
         O2        1.0000    0.58300   0.82570   0.76940   Biso      1.000     O          -0.556118           
         O3        1.0000    0.86790   0.86280   0.15580   Biso      1.000     O          -0.58901  
         O4        1.0000    0.59050   0.19950   0.85580   Biso      1.000     O          -0.579732           
         O5        1.0000    0.51100   0.04560   0.88640   Biso      1.000     O          -0.563991           
         O6        1.0000    0.03710   0.96960   0.16550   Biso      1.000     O          -0.544941           
         O7        1.0000    0.20560   0.80250   0.28610   Biso      1.000     O          -0.568691           
         O8        1.0000    0.70560   0.69750   0.71390   Biso      1.000     O          -0.568688           
         O9        1.0000    0.24190   0.82940   0.74240   Biso      1.000     O          -0.541777           
         O10       1.0000    0.01100   0.45440   0.11360   Biso      1.000     O          -0.563992           
         O11       1.0000    0.40950   0.69950   0.64420   Biso      1.000     O          -0.579731           
         O12       1.0000    0.74190   0.67060   0.25760   Biso      1.000     O          -0.541777           
         O13       1.0000    0.09050   0.30050   0.14420   Biso      1.000     O          -0.579731           
         O14       1.0000    0.36790   0.63720   0.84420   Biso      1.000     O          -0.589009           
         O15       1.0000    0.75810   0.32940   0.75760   Biso      1.000     O          -0.541776           
         O16       1.0000    0.96290   0.46960   0.33450   Biso      1.000     O          -0.54494  
         O17       1.0000    0.48900   0.54560   0.61360   Biso      1.000     O          -0.563991           
         O18       1.0000    0.29440   0.19750   0.78610   Biso      1.000     O          -0.568689           
         O19       1.0000    0.77040   0.48920   0.70310   Biso      1.000     O          -0.545057           
         O20       1.0000    0.08300   0.67430   0.23060   Biso      1.000     O          -0.556117           
         O21       1.0000    0.22960   0.98920   0.79690   Biso      1.000     O          -0.545057           
         O22       1.0000    0.53710   0.53040   0.83450   Biso      1.000     O          -0.54494  
         O23       1.0000    0.91700   0.17430   0.26940   Biso      1.000     O          -0.556118           
         O24       1.0000    0.41700   0.32570   0.73060   Biso      1.000     O          -0.556117           
         O25       1.0000    0.90950   0.80050   0.35580   Biso      1.000     O          -0.579732           
         O26       1.0000    0.25810   0.17060   0.24240   Biso      1.000     O          -0.541777           
         O27       1.0000    0.46290   0.03040   0.66550   Biso      1.000     O          -0.54494  
         O28       1.0000    0.98900   0.95440   0.38640   Biso      1.000     O          -0.563992           
         O29       1.0000    0.79440   0.30250   0.21390   Biso      1.000     O          -0.56869  
         O30       1.0000    0.27040   0.01080   0.29690   Biso      1.000     O          -0.545059           
         O31       1.0000    0.13210   0.36280   0.34420   Biso      1.000     O          -0.58901  
         O32       1.0000    0.63210   0.13720   0.65580   Biso      1.000     O          -0.58901  
         S1        1.0000    0.54148   0.20639   0.23130   Biso      1.000     S          0.158519  
         S2        1.0000    0.78631   0.01723   0.52215   Biso      1.000     S          0.164     
         S3        1.0000    0.95852   0.79361   0.73130   Biso      1.000     S          0.158516  
         S4        1.0000    0.45852   0.70639   0.26870   Biso      1.000     S          0.158516  
         S5        1.0000    0.21369   0.51723   0.97785   Biso      1.000     S          0.164     
         S6        1.0000    0.04148   0.29361   0.76870   Biso      1.000     S          0.158516  
         S7        1.0000    0.28631   0.48277   0.47785   Biso      1.000     S          0.164     
         S8        1.0000    0.71369   0.98277   0.02215   Biso      1.000     S          0.163999  
         Zn1       1.0000    0.59206   0.26643   0.72036   Biso      1.000     Zn          1.03099   
         Zn2       1.0000    0.61409   0.56923   0.71436   Biso      1.000     Zn          0.96343   
         Zn3       1.0000    0.90794   0.73357   0.22036   Biso      1.000     Zn          1.030993  
         Zn4       1.0000    0.88591   0.43077   0.21436   Biso      1.000     Zn          0.963432  
         Zn5       1.0000    0.40794   0.76643   0.77964   Biso      1.000     Zn          1.03099   
         Zn6       1.0000    0.38591   0.06923   0.78564   Biso      1.000     Zn          0.963434  
         Zn7       1.0000    0.09206   0.23357   0.27964   Biso      1.000     Zn          1.030993  
         Zn8       1.0000    0.11409   0.93077   0.28564   Biso      1.000     Zn          0.963436 