
##########################################################################
#               Crystallographic Information Format file
#               Produced by PyCifRW module
#
#  This is a CIF file.  CIF has been adopted by the International
#  Union of Crystallography as the standard for data archiving and
#  transmission.
#
#  For information on this file format, follow the CIF links at
#  http://www.iucr.org
##########################################################################

data_image0

_cell_length_a                          11.425
_cell_length_b                          15.824
_cell_length_c                          12.649
_cell_angle_alpha                       90
_cell_angle_beta                        90
_cell_angle_gamma                       90
_symmetry_space_group_name_H-M          'P 1'
_symmetry_int_tables_number             1
loop_
  _symmetry_equiv_pos_as_xyz
         'x, y, z' 
loop_
  _atom_site_label
  _atom_site_occupancy
  _atom_site_fract_x
  _atom_site_fract_y
  _atom_site_fract_z
  _atom_site_thermal_displace_type
  _atom_site_B_iso_or_equiv
  _atom_site_type_symbol
  _atom_site_charge
         C1        1.0000    0.52550   0.95780   0.47970   Biso      1.000     C          0.541131  
         C2        1.0000    0.47710   0.54220   0.52250   Biso      1.000     C          0.521831  
         C3        1.0000    0.47450   0.04220   0.52030   Biso      1.000     C          0.541131  
         C4        1.0000    0.18300   0.90760   0.72700   Biso      1.000     C          0.513219  
         C5        1.0000    0.97450   0.45780   0.02030   Biso      1.000     C          0.541131  
         C6        1.0000    0.68300   0.59240   0.22700   Biso      1.000     C          0.513219  
         C7        1.0000    0.02290   0.54220   0.52250   Biso      1.000     C          0.521831  
         C8        1.0000    0.02550   0.04220   0.52030   Biso      1.000     C          0.541131  
         C9        1.0000    0.31700   0.90760   0.72700   Biso      1.000     C          0.513219  
         C10       1.0000    0.97710   0.95780   0.02250   Biso      1.000     C          0.521831  
         C11       1.0000    0.47450   0.54220   0.97970   Biso      1.000     C          0.541131  
         C12       1.0000    0.81700   0.59240   0.22700   Biso      1.000     C          0.513219  
         C13       1.0000    0.18300   0.40760   0.77300   Biso      1.000     C          0.513219  
         C14       1.0000    0.81700   0.09240   0.27300   Biso      1.000     C          0.513219  
         C15       1.0000    0.47710   0.04220   0.97750   Biso      1.000     C          0.521831  
         C16       1.0000    0.25000   0.47330   0.27180   Biso      1.000     C          0.542059  
         C17       1.0000    0.25000   0.37670   0.26900   Biso      1.000     C          0.564545  
         C18       1.0000    0.75000   0.02670   0.77180   Biso      1.000     C          0.542059  
         C19       1.0000    0.75000   0.12330   0.76900   Biso      1.000     C          0.564545  
         C20       1.0000    0.75000   0.52670   0.72820   Biso      1.000     C          0.542059  
         C21       1.0000    0.75000   0.62330   0.73100   Biso      1.000     C          0.564545  
         C22       1.0000    0.25000   0.97330   0.22820   Biso      1.000     C          0.542059  
         C23       1.0000    0.25000   0.87670   0.23100   Biso      1.000     C          0.564545  
         C24       1.0000    0.52290   0.45780   0.47750   Biso      1.000     C          0.52183   
         C25       1.0000    0.52550   0.45780   0.02030   Biso      1.000     C          0.541131  
         C26       1.0000    0.52290   0.95780   0.02250   Biso      1.000     C          0.52183   
         C27       1.0000    0.68300   0.09240   0.27300   Biso      1.000     C          0.513218  
         C28       1.0000    0.97450   0.95780   0.47970   Biso      1.000     C          0.541131  
         C29       1.0000    0.97710   0.45780   0.47750   Biso      1.000     C          0.521831  
         C30       1.0000    0.31700   0.40760   0.77300   Biso      1.000     C          0.513219  
         C31       1.0000    0.02550   0.54220   0.97970   Biso      1.000     C          0.541131  
         C32       1.0000    0.02290   0.04220   0.97750   Biso      1.000     C          0.521831  
         Gd1       1.0000    0.25000   0.42294   0.52233   Biso      1.000     Gd          1.968053  
         Gd2       1.0000    0.25000   0.42622   0.02228   Biso      1.000     Gd          2.012862  
         Gd3       1.0000    0.75000   0.07706   0.02233   Biso      1.000     Gd          1.968053  
         Gd4       1.0000    0.75000   0.07378   0.52228   Biso      1.000     Gd          2.012862  
         Gd5       1.0000    0.75000   0.57378   0.97772   Biso      1.000     Gd          2.012862  
         Gd6       1.0000    0.25000   0.92294   0.97767   Biso      1.000     Gd          1.968052  
         Gd7       1.0000    0.25000   0.92622   0.47772   Biso      1.000     Gd          2.012861  
         Gd8       1.0000    0.75000   0.57706   0.47767   Biso      1.000     Gd          1.968052  
         H1        1.0000    0.80610   0.24700   0.09560   Biso      1.000     H          0.488186  
         H2        1.0000    0.69390   0.74700   0.40440   Biso      1.000     H          0.488186  
         H3        1.0000    0.30610   0.75300   0.90440   Biso      1.000     H          0.488186  
         H4        1.0000    0.80610   0.74700   0.40440   Biso      1.000     H          0.488186  
         H5        1.0000    0.19390   0.75300   0.90440   Biso      1.000     H          0.488186  
         H6        1.0000    0.30610   0.25300   0.59560   Biso      1.000     H          0.488186  
         H7        1.0000    0.69390   0.24700   0.09560   Biso      1.000     H          0.488186  
         H8        1.0000    0.19390   0.25300   0.59560   Biso      1.000     H          0.488186  
         O1        1.0000    0.37210   0.04660   0.95360   Biso      1.000     O          -0.568748           
         O2        1.0000    0.86700   0.09210   0.18460   Biso      1.000     O          -0.599303           
         O3        1.0000    0.55090   0.10070   0.96850   Biso      1.000     O          -0.653818           
         O4        1.0000    0.45450   0.90820   0.43480   Biso      1.000     O          -0.595204           
         O5        1.0000    0.86540   0.09370   0.36110   Biso      1.000     O          -0.631277           
         O6        1.0000    0.63220   0.94510   0.49530   Biso      1.000     O          -0.668686           
         O7        1.0000    0.62790   0.45340   0.45360   Biso      1.000     O          -0.568749           
         O8        1.0000    0.36700   0.90790   0.81540   Biso      1.000     O          -0.599302           
         O9        1.0000    0.44910   0.39930   0.46850   Biso      1.000     O          -0.653818           
         O10       1.0000    0.54550   0.59180   0.93480   Biso      1.000     O          -0.595204           
         O11       1.0000    0.87210   0.95340   0.04640   Biso      1.000     O          -0.568749           
         O12       1.0000    0.36780   0.55490   0.99530   Biso      1.000     O          -0.668686           
         O13       1.0000    0.25000   0.50840   0.36050   Biso      1.000     O          -0.54726  
         O14       1.0000    0.13460   0.40630   0.86110   Biso      1.000     O          -0.631277           
         O15       1.0000    0.13300   0.40790   0.68460   Biso      1.000     O          -0.599302           
         O16       1.0000    0.25000   0.33820   0.35680   Biso      1.000     O          -0.693581           
         O17       1.0000    0.63460   0.09370   0.36110   Biso      1.000     O          -0.631277           
         O18       1.0000    0.25000   0.51010   0.18450   Biso      1.000     O          -0.710213           
         O19       1.0000    0.25000   0.84220   0.31850   Biso      1.000     O          -0.603014           
         O20       1.0000    0.25000   0.83820   0.14320   Biso      1.000     O          -0.693581           
         O21       1.0000    0.25000   0.00840   0.13950   Biso      1.000     O          -0.54726  
         O22       1.0000    0.05090   0.89930   0.03150   Biso      1.000     O          -0.653818           
         O23       1.0000    0.75000   0.73280   0.44330   Biso      1.000     O          -0.904009           
         O24       1.0000    0.75000   0.48990   0.81550   Biso      1.000     O          -0.710213           
         O25       1.0000    0.75000   0.65780   0.81850   Biso      1.000     O          -0.603015           
         O26       1.0000    0.75000   0.66180   0.64320   Biso      1.000     O          -0.693581           
         O27       1.0000    0.75000   0.49160   0.63950   Biso      1.000     O          -0.54726  
         O28       1.0000    0.75000   0.23280   0.05670   Biso      1.000     O          -0.904009           
         O29       1.0000    0.75000   0.98990   0.68450   Biso      1.000     O          -0.710212           
         O30       1.0000    0.75000   0.15780   0.68150   Biso      1.000     O          -0.603014           
         O31       1.0000    0.75000   0.16180   0.85680   Biso      1.000     O          -0.693581           
         O32       1.0000    0.75000   0.99160   0.86050   Biso      1.000     O          -0.54726  
         O33       1.0000    0.25000   0.26720   0.55670   Biso      1.000     O          -0.904009           
         O34       1.0000    0.25000   0.34220   0.18150   Biso      1.000     O          -0.603015           
         O35       1.0000    0.95450   0.09180   0.56520   Biso      1.000     O          -0.595204           
         O36       1.0000    0.25000   0.76720   0.94330   Biso      1.000     O          -0.904009           
         O37       1.0000    0.13220   0.05490   0.50470   Biso      1.000     O          -0.668686           
         O38       1.0000    0.13220   0.55490   0.99530   Biso      1.000     O          -0.668686           
         O39       1.0000    0.36540   0.40630   0.86110   Biso      1.000     O          -0.631277           
         O40       1.0000    0.95450   0.59180   0.93480   Biso      1.000     O          -0.595204           
         O41       1.0000    0.05090   0.39930   0.46850   Biso      1.000     O          -0.653818           
         O42       1.0000    0.36700   0.40790   0.68460   Biso      1.000     O          -0.599302           
         O43       1.0000    0.87210   0.45340   0.45360   Biso      1.000     O          -0.568749           
         O44       1.0000    0.86780   0.94510   0.49530   Biso      1.000     O          -0.668686           
         O45       1.0000    0.25000   0.01010   0.31550   Biso      1.000     O          -0.710212           
         O46       1.0000    0.04550   0.90820   0.43480   Biso      1.000     O          -0.595204           
         O47       1.0000    0.94910   0.10070   0.96850   Biso      1.000     O          -0.653818           
         O48       1.0000    0.63300   0.09210   0.18460   Biso      1.000     O          -0.599302           
         O49       1.0000    0.12790   0.04660   0.95360   Biso      1.000     O          -0.568749           
         O50       1.0000    0.63220   0.44510   0.00470   Biso      1.000     O          -0.668686           
         O51       1.0000    0.36540   0.90630   0.63890   Biso      1.000     O          -0.631277           
         O52       1.0000    0.45450   0.40820   0.06520   Biso      1.000     O          -0.595204           
         O53       1.0000    0.86540   0.59370   0.13890   Biso      1.000     O          -0.631277           
         O54       1.0000    0.86700   0.59210   0.31540   Biso      1.000     O          -0.599302           
         O55       1.0000    0.12790   0.54660   0.54640   Biso      1.000     O          -0.568749           
         O56       1.0000    0.63300   0.59210   0.31540   Biso      1.000     O          -0.599302           
         O57       1.0000    0.94910   0.60070   0.53150   Biso      1.000     O          -0.653818           
         O58       1.0000    0.04550   0.40820   0.06520   Biso      1.000     O          -0.595204           
         O59       1.0000    0.55090   0.60070   0.53150   Biso      1.000     O          -0.653818           
         O60       1.0000    0.86780   0.44510   0.00470   Biso      1.000     O          -0.668686           
         O61       1.0000    0.63460   0.59370   0.13890   Biso      1.000     O          -0.631277           
         O62       1.0000    0.13300   0.90790   0.81540   Biso      1.000     O          -0.599302           
         O63       1.0000    0.44910   0.89930   0.03150   Biso      1.000     O          -0.653818           
         O64       1.0000    0.54550   0.09180   0.56520   Biso      1.000     O          -0.595204           
         O65       1.0000    0.13460   0.90630   0.63890   Biso      1.000     O          -0.631277           
         O66       1.0000    0.36780   0.05490   0.50470   Biso      1.000     O          -0.668686           
         O67       1.0000    0.37210   0.54660   0.54640   Biso      1.000     O          -0.568749           
         O68       1.0000    0.62790   0.95340   0.04640   Biso      1.000     O          -0.568749           
         Sr1       1.0000    0.25000   0.17245   0.37126   Biso      1.000     Sr          1.675899  
         Sr2       1.0000    0.75000   0.32755   0.87126   Biso      1.000     Sr          1.675899  
         Sr3       1.0000    0.75000   0.82755   0.62874   Biso      1.000     Sr          1.675898  
         Sr4       1.0000    0.25000   0.67245   0.12874   Biso      1.000     Sr          1.675899 