
##########################################################################
#               Crystallographic Information Format file
#               Produced by PyCifRW module
#
#  This is a CIF file.  CIF has been adopted by the International
#  Union of Crystallography as the standard for data archiving and
#  transmission.
#
#  For information on this file format, follow the CIF links at
#  http://www.iucr.org
##########################################################################

data_image0

_cell_length_a                          11.452
_cell_length_b                          15.829
_cell_length_c                          12.685
_cell_angle_alpha                       90
_cell_angle_beta                        90
_cell_angle_gamma                       90
_symmetry_space_group_name_H-M          'P 1'
_symmetry_int_tables_number             1
loop_
  _symmetry_equiv_pos_as_xyz
         'x, y, z' 
loop_
  _atom_site_label
  _atom_site_occupancy
  _atom_site_fract_x
  _atom_site_fract_y
  _atom_site_fract_z
  _atom_site_thermal_displace_type
  _atom_site_B_iso_or_equiv
  _atom_site_type_symbol
  _atom_site_charge
         C1        1.0000    0.47690   0.45770   0.97710   Biso      1.000     C          0.506831  
         C2        1.0000    0.52310   0.54230   0.02290   Biso      1.000     C          0.506838  
         C3        1.0000    0.18320   0.09310   0.77380   Biso      1.000     C          0.5004390000000001  
         C4        1.0000    0.47520   0.95750   0.98030   Biso      1.000     C          0.5129560000000001  
         C5        1.0000    0.47690   0.95770   0.52290   Biso      1.000     C          0.506812  
         C6        1.0000    0.31680   0.59310   0.72620   Biso      1.000     C          0.500433  
         C7        1.0000    0.02480   0.45750   0.51970   Biso      1.000     C          0.512968  
         C8        1.0000    0.02310   0.45770   0.97710   Biso      1.000     C          0.506834  
         C9        1.0000    0.68320   0.90690   0.22620   Biso      1.000     C          0.5004350000000001  
         C10       1.0000    0.97520   0.04250   0.01970   Biso      1.000     C          0.512957  
         C11       1.0000    0.97690   0.04230   0.47710   Biso      1.000     C          0.506812  
         C12       1.0000    0.02310   0.95770   0.52290   Biso      1.000     C          0.506808  
         C13       1.0000    0.02480   0.95750   0.98030   Biso      1.000     C          0.512957  
         C14       1.0000    0.31680   0.09310   0.77380   Biso      1.000     C          0.500424  
         C15       1.0000    0.97690   0.54230   0.02290   Biso      1.000     C          0.506843  
         C16       1.0000    0.97520   0.54250   0.48030   Biso      1.000     C          0.512977  
         C17       1.0000    0.68320   0.40690   0.27380   Biso      1.000     C          0.500434  
         C18       1.0000    0.52310   0.04230   0.47710   Biso      1.000     C          0.506812  
         C19       1.0000    0.52480   0.04250   0.01970   Biso      1.000     C          0.512955  
         C20       1.0000    0.81680   0.90690   0.22620   Biso      1.000     C          0.500434  
         C21       1.0000    0.47520   0.45750   0.51970   Biso      1.000     C          0.512968  
         C22       1.0000    0.18320   0.59310   0.72620   Biso      1.000     C          0.500433  
         C23       1.0000    0.75000   0.87540   0.73040   Biso      1.000     C          0.536849  
         C24       1.0000    0.75000   0.97290   0.72690   Biso      1.000     C          0.529425  
         C25       1.0000    0.25000   0.62460   0.23040   Biso      1.000     C          0.536849  
         C26       1.0000    0.25000   0.52710   0.22690   Biso      1.000     C          0.529425  
         C27       1.0000    0.25000   0.12460   0.26960   Biso      1.000     C          0.536848  
         C28       1.0000    0.25000   0.02710   0.27310   Biso      1.000     C          0.529421  
         C29       1.0000    0.75000   0.37540   0.76960   Biso      1.000     C          0.536846  
         C30       1.0000    0.75000   0.47290   0.77310   Biso      1.000     C          0.529423  
         C31       1.0000    0.52480   0.54250   0.48030   Biso      1.000     C          0.5129779999999999  
         C32       1.0000    0.81680   0.40690   0.27380   Biso      1.000     C          0.5004149999999999  
         Eu1       1.0000    0.75000   0.92234   0.47706   Biso      1.000     Eu          1.269573  
         Eu2       1.0000    0.25000   0.07766   0.52294   Biso      1.000     Eu          1.269569  
         Eu3       1.0000    0.75000   0.92558   0.97728   Biso      1.000     Eu          1.332243  
         Eu4       1.0000    0.25000   0.57766   0.97706   Biso      1.000     Eu          1.269554  
         Eu5       1.0000    0.25000   0.57442   0.47728   Biso      1.000     Eu          1.332333  
         Eu6       1.0000    0.25000   0.07442   0.02272   Biso      1.000     Eu          1.3322459999999998  
         Eu7       1.0000    0.75000   0.42234   0.02294   Biso      1.000     Eu          1.269548  
         Eu8       1.0000    0.75000   0.42558   0.52272   Biso      1.000     Eu          1.332339  
         H1        1.0000    0.18940   0.74780   0.90950   Biso      1.000     H          0.48885500000000004           
         H2        1.0000    0.81060   0.75220   0.40950   Biso      1.000     H          0.48886999999999997           
         H3        1.0000    0.68940   0.75220   0.40950   Biso      1.000     H          0.48886999999999997           
         H4        1.0000    0.31060   0.74780   0.90950   Biso      1.000     H          0.488856  
         H5        1.0000    0.18940   0.24780   0.59050   Biso      1.000     H          0.48886599999999997           
         H6        1.0000    0.81060   0.25220   0.09050   Biso      1.000     H          0.48886   
         H7        1.0000    0.31060   0.24780   0.59050   Biso      1.000     H          0.48886599999999997           
         H8        1.0000    0.68940   0.25220   0.09050   Biso      1.000     H          0.48886   
         O1        1.0000    0.04470   0.59180   0.43490   Biso      1.000     O          -0.468017           
         O2        1.0000    0.55040   0.39870   0.96900   Biso      1.000     O          -0.48624700000000004          
         O3        1.0000    0.13360   0.59300   0.81460   Biso      1.000     O          -0.513745           
         O4        1.0000    0.13440   0.59530   0.63820   Biso      1.000     O          -0.522624           
         O5        1.0000    0.36820   0.44500   0.50360   Biso      1.000     O          -0.628087           
         O6        1.0000    0.37330   0.45420   0.95360   Biso      1.000     O          -0.398005           
         O7        1.0000    0.45530   0.09180   0.06510   Biso      1.000     O          -0.46801499999999996          
         O8        1.0000    0.86560   0.90470   0.13820   Biso      1.000     O          -0.522608           
         O9        1.0000    0.86640   0.90700   0.31460   Biso      1.000     O          -0.513734           
         O10       1.0000    0.05040   0.60130   0.03100   Biso      1.000     O          -0.486257           
         O11       1.0000    0.54470   0.40820   0.56510   Biso      1.000     O          -0.468009           
         O12       1.0000    0.63360   0.40700   0.18540   Biso      1.000     O          -0.513745           
         O13       1.0000    0.63180   0.05500   0.00360   Biso      1.000     O          -0.6280640000000001           
         O14       1.0000    0.62670   0.04580   0.45360   Biso      1.000     O          -0.398044           
         O15       1.0000    0.44960   0.10130   0.46900   Biso      1.000     O          -0.486224           
         O16       1.0000    0.75000   0.83830   0.64230   Biso      1.000     O          -0.6722319999999999           
         O17       1.0000    0.25000   0.49110   0.31440   Biso      1.000     O          -0.668805           
         O18       1.0000    0.75000   0.84180   0.81790   Biso      1.000     O          -0.5381729999999999           
         O19       1.0000    0.25000   0.23540   0.55680   Biso      1.000     O          -0.8972549999999999           
         O20       1.0000    0.63440   0.40470   0.36180   Biso      1.000     O          -0.52264  
         O21       1.0000    0.75000   0.33830   0.85770   Biso      1.000     O          -0.672217           
         O22       1.0000    0.75000   0.50790   0.86010   Biso      1.000     O          -0.509834           
         O23       1.0000    0.75000   0.34180   0.68210   Biso      1.000     O          -0.538189           
         O24       1.0000    0.25000   0.99110   0.18560   Biso      1.000     O          -0.668794           
         O25       1.0000    0.25000   0.15820   0.18210   Biso      1.000     O          -0.538171           
         O26       1.0000    0.25000   0.99210   0.36010   Biso      1.000     O          -0.5098189999999999           
         O27       1.0000    0.25000   0.16170   0.35770   Biso      1.000     O          -0.672226           
         O28       1.0000    0.25000   0.73540   0.94320   Biso      1.000     O          -0.8972549999999999           
         O29       1.0000    0.25000   0.65820   0.31790   Biso      1.000     O          -0.538197           
         O30       1.0000    0.25000   0.49210   0.13990   Biso      1.000     O          -0.50985  
         O31       1.0000    0.25000   0.66170   0.14230   Biso      1.000     O          -0.672222           
         O32       1.0000    0.75000   0.76460   0.44320   Biso      1.000     O          -0.8972559999999999           
         O33       1.0000    0.75000   0.00890   0.81440   Biso      1.000     O          -0.6688   
         O34       1.0000    0.75000   0.00790   0.63990   Biso      1.000     O          -0.509827           
         O35       1.0000    0.86820   0.55500   0.49640   Biso      1.000     O          -0.6280819999999999           
         O36       1.0000    0.13180   0.44500   0.50360   Biso      1.000     O          -0.628083           
         O37       1.0000    0.95530   0.90820   0.93490   Biso      1.000     O          -0.468021           
         O38       1.0000    0.87330   0.04580   0.45360   Biso      1.000     O          -0.398055           
         O39       1.0000    0.86820   0.05500   0.00360   Biso      1.000     O          -0.628065           
         O40       1.0000    0.63440   0.90470   0.13820   Biso      1.000     O          -0.5226   
         O41       1.0000    0.63360   0.90700   0.31460   Biso      1.000     O          -0.5137470000000001           
         O42       1.0000    0.05040   0.10130   0.46900   Biso      1.000     O          -0.486224           
         O43       1.0000    0.04470   0.09180   0.06510   Biso      1.000     O          -0.46801899999999996          
         O44       1.0000    0.12670   0.45420   0.95360   Biso      1.000     O          -0.397992           
         O45       1.0000    0.75000   0.50890   0.68560   Biso      1.000     O          -0.668795           
         O46       1.0000    0.36560   0.59530   0.63820   Biso      1.000     O          -0.522617           
         O47       1.0000    0.36640   0.59300   0.81460   Biso      1.000     O          -0.51375  
         O48       1.0000    0.94960   0.39870   0.96900   Biso      1.000     O          -0.48624799999999996          
         O49       1.0000    0.95530   0.40820   0.56510   Biso      1.000     O          -0.46801499999999996          
         O50       1.0000    0.87330   0.54580   0.04640   Biso      1.000     O          -0.397984           
         O51       1.0000    0.36820   0.94500   0.99640   Biso      1.000     O          -0.628062           
         O52       1.0000    0.37330   0.95420   0.54640   Biso      1.000     O          -0.398042           
         O53       1.0000    0.13360   0.09300   0.68540   Biso      1.000     O          -0.5137430000000001           
         O54       1.0000    0.94960   0.89870   0.53100   Biso      1.000     O          -0.48622299999999996          
         O55       1.0000    0.36640   0.09300   0.68540   Biso      1.000     O          -0.513733           
         O56       1.0000    0.36560   0.09530   0.86180   Biso      1.000     O          -0.5226069999999999           
         O57       1.0000    0.13180   0.94500   0.99640   Biso      1.000     O          -0.6280640000000001           
         O58       1.0000    0.13440   0.09530   0.86180   Biso      1.000     O          -0.5226   
         O59       1.0000    0.45530   0.59180   0.43490   Biso      1.000     O          -0.468012           
         O60       1.0000    0.12670   0.95420   0.54640   Biso      1.000     O          -0.398052           
         O61       1.0000    0.86640   0.40700   0.18540   Biso      1.000     O          -0.5137689999999999           
         O62       1.0000    0.86560   0.40470   0.36180   Biso      1.000     O          -0.522619           
         O63       1.0000    0.63180   0.55500   0.49640   Biso      1.000     O          -0.628084           
         O64       1.0000    0.62670   0.54580   0.04640   Biso      1.000     O          -0.397998           
         O65       1.0000    0.54470   0.90820   0.93490   Biso      1.000     O          -0.468017           
         O66       1.0000    0.55040   0.89870   0.53100   Biso      1.000     O          -0.48622299999999996          
         O67       1.0000    0.44960   0.60130   0.03100   Biso      1.000     O          -0.486255           
         O68       1.0000    0.75000   0.26460   0.05680   Biso      1.000     O          -0.8972540000000001           
         Sr1       1.0000    0.75000   0.17211   0.87106   Biso      1.000     Sr          1.633414  
         Sr2       1.0000    0.25000   0.32789   0.37106   Biso      1.000     Sr          1.633446  
         Sr3       1.0000    0.25000   0.82789   0.12894   Biso      1.000     Sr          1.633414  
         Sr4       1.0000    0.75000   0.67211   0.62894   Biso      1.000     Sr          1.633421 