
##########################################################################
#               Crystallographic Information Format file
#               Produced by PyCifRW module
#
#  This is a CIF file.  CIF has been adopted by the International
#  Union of Crystallography as the standard for data archiving and
#  transmission.
#
#  For information on this file format, follow the CIF links at
#  http://www.iucr.org
##########################################################################

data_image0

_cell_length_a                          10.6052
_cell_length_b                          14.3869
_cell_length_c                          15.5751
_cell_angle_alpha                       90
_cell_angle_beta                        90
_cell_angle_gamma                       108.285
_symmetry_space_group_name_H-M          'P 1'
_symmetry_int_tables_number             1
loop_
  _symmetry_equiv_pos_as_xyz
         'x, y, z' 
loop_
  _atom_site_label
  _atom_site_occupancy
  _atom_site_fract_x
  _atom_site_fract_y
  _atom_site_fract_z
  _atom_site_thermal_displace_type
  _atom_site_B_iso_or_equiv
  _atom_site_type_symbol
  _atom_site_charge
         C1        1.0000    0.60416   0.72476   0.97089   Biso      1.000     C          0.011351  
         C2        1.0000    0.58686   0.18451   0.07553   Biso      1.000     C          -0.012912           
         C3        1.0000    0.72072   0.28665   0.86249   Biso      1.000     C          -0.11397  
         C4        1.0000    0.98290   0.87524   0.08208   Biso      1.000     C          0.064182  
         C5        1.0000    0.06720   0.95195   0.12849   Biso      1.000     C          -0.061041           
         C6        1.0000    0.20820   0.97104   0.01199   Biso      1.000     C          0.06458   
         C7        1.0000    0.18370   0.00171   0.09226   Biso      1.000     C          -0.050334           
         C8        1.0000    0.28391   0.03935   0.44237   Biso      1.000     C          0.009334  
         C9        1.0000    0.50817   0.33352   0.41146   Biso      1.000     C          0.021449  
         C10       1.0000    0.18578   0.17198   0.52168   Biso      1.000     C          0.031157  
         C11       1.0000    0.51155   0.14832   0.37567   Biso      1.000     C          0.008657999999999999          
         C12       1.0000    0.37847   0.11151   0.60305   Biso      1.000     C          -0.000292           
         C13       1.0000    0.60416   0.22476   0.52911   Biso      1.000     C          0.011348  
         C14       1.0000    0.41314   0.31549   0.57553   Biso      1.000     C          -0.012897           
         C15       1.0000    0.39584   0.27524   0.02911   Biso      1.000     C          0.011341  
         C16       1.0000    0.27928   0.21335   0.36249   Biso      1.000     C          -0.11396300000000001          
         C17       1.0000    0.93280   0.54805   0.62849   Biso      1.000     C          -0.061048000000000005         
         C18       1.0000    0.79180   0.52896   0.51199   Biso      1.000     C          0.064568  
         C19       1.0000    0.81630   0.49829   0.59226   Biso      1.000     C          -0.050345999999999995         
         C20       1.0000    0.28391   0.53935   0.05763   Biso      1.000     C          0.009339  
         C21       1.0000    0.50817   0.83352   0.08854   Biso      1.000     C          0.02145   
         C22       1.0000    0.18578   0.67198   0.97832   Biso      1.000     C          0.03115   
         C23       1.0000    0.51155   0.64832   0.12433   Biso      1.000     C          0.008655  
         C24       1.0000    0.37847   0.61151   0.89695   Biso      1.000     C          -0.000299           
         C25       1.0000    0.71609   0.96065   0.55763   Biso      1.000     C          0.009344  
         C26       1.0000    0.41314   0.81549   0.92447   Biso      1.000     C          -0.012906           
         C27       1.0000    0.27928   0.71335   0.13751   Biso      1.000     C          -0.11396400000000001          
         C28       1.0000    0.01710   0.12476   0.91792   Biso      1.000     C          0.064187  
         C29       1.0000    0.93280   0.04805   0.87151   Biso      1.000     C          -0.061049           
         C30       1.0000    0.01710   0.62476   0.58208   Biso      1.000     C          0.064184  
         C31       1.0000    0.62153   0.38849   0.10305   Biso      1.000     C          -0.000299           
         C32       1.0000    0.48845   0.35168   0.87567   Biso      1.000     C          0.008654  
         C33       1.0000    0.81422   0.32802   0.02168   Biso      1.000     C          0.031147  
         C34       1.0000    0.18370   0.50171   0.40774   Biso      1.000     C          -0.050363           
         C35       1.0000    0.20820   0.47104   0.48801   Biso      1.000     C          0.064581  
         C36       1.0000    0.06720   0.45195   0.37151   Biso      1.000     C          -0.061027           
         C37       1.0000    0.98290   0.37524   0.41792   Biso      1.000     C          0.064186  
         C38       1.0000    0.72072   0.78665   0.63751   Biso      1.000     C          -0.11397  
         C39       1.0000    0.58686   0.68451   0.42447   Biso      1.000     C          -0.012897           
         C40       1.0000    0.39584   0.77524   0.47089   Biso      1.000     C          0.011337999999999999          
         C41       1.0000    0.62153   0.88849   0.39695   Biso      1.000     C          -0.000297           
         C42       1.0000    0.48845   0.85168   0.62433   Biso      1.000     C          0.008655  
         C43       1.0000    0.81422   0.82802   0.47832   Biso      1.000     C          0.031145  
         C44       1.0000    0.49183   0.66648   0.58854   Biso      1.000     C          0.021458  
         C45       1.0000    0.79180   0.02896   0.98801   Biso      1.000     C          0.064579  
         C46       1.0000    0.81630   0.99829   0.90774   Biso      1.000     C          -0.050332999999999996         
         C47       1.0000    0.49183   0.16648   0.91146   Biso      1.000     C          0.02145   
         C48       1.0000    0.71609   0.46065   0.94237   Biso      1.000     C          0.009333  
         H1        1.0000    0.09840   0.65930   0.60640   Biso      1.000     H          0.10822000000000001           
         H2        1.0000    0.24460   0.55410   0.38010   Biso      1.000     H          0.136318  
         H3        1.0000    0.28930   0.50370   0.51350   Biso      1.000     H          0.101315  
         H4        1.0000    0.04400   0.46830   0.31730   Biso      1.000     H          0.137653  
         H5        1.0000    0.90160   0.34070   0.39360   Biso      1.000     H          0.108247  
         H6        1.0000    0.75540   0.94590   0.88010   Biso      1.000     H          0.136328  
         H7        1.0000    0.71070   0.99630   0.01350   Biso      1.000     H          0.101316  
         H8        1.0000    0.95600   0.03170   0.81730   Biso      1.000     H          0.137674  
         H9        1.0000    0.09840   0.15930   0.89360   Biso      1.000     H          0.10826199999999998           
         H10       1.0000    0.75540   0.44590   0.61990   Biso      1.000     H          0.13631300000000002           
         H11       1.0000    0.90160   0.84070   0.10640   Biso      1.000     H          0.108259  
         H12       1.0000    0.04400   0.96830   0.18270   Biso      1.000     H          0.137653  
         H13       1.0000    0.28930   0.00370   0.98650   Biso      1.000     H          0.101314  
         H14       1.0000    0.71070   0.49630   0.48650   Biso      1.000     H          0.101309  
         H15       1.0000    0.95600   0.53170   0.68270   Biso      1.000     H          0.137627  
         H16       1.0000    0.24460   0.05410   0.11990   Biso      1.000     H          0.136324  
         Mn1       1.0000    0.58665   0.01678   0.22444   Biso      1.000     Mn          1.062919  
         Mn2       1.0000    0.10720   0.80281   0.44865   Biso      1.000     Mn          1.025023  
         Mn3       1.0000    0.89280   0.19719   0.55135   Biso      1.000     Mn          1.025061  
         Mn4       1.0000    0.58665   0.51678   0.27556   Biso      1.000     Mn          1.062941  
         Mn5       1.0000    0.10720   0.30281   0.05135   Biso      1.000     Mn          1.025026  
         Mn6       1.0000    0.41335   0.98322   0.77556   Biso      1.000     Mn          1.062923  
         Mn7       1.0000    0.41335   0.48322   0.72444   Biso      1.000     Mn          1.062948  
         Mn8       1.0000    0.89280   0.69719   0.94865   Biso      1.000     Mn          1.025043  
         N1        1.0000    0.98842   0.15155   0.99453   Biso      1.000     N          -0.159407           
         N2        1.0000    0.57016   0.62254   0.17580   Biso      1.000     N          -0.37761999999999996          
         N3        1.0000    0.07764   0.65989   0.95923   Biso      1.000     N          -0.381912           
         N4        1.0000    0.55922   0.90137   0.12931   Biso      1.000     N          -0.390602           
         N5        1.0000    0.07764   0.15989   0.54077   Biso      1.000     N          -0.381922           
         N6        1.0000    0.42377   0.87633   0.87503   Biso      1.000     N          -0.37190700000000004          
         N7        1.0000    0.36904   0.56945   0.83336   Biso      1.000     N          -0.37006700000000003          
         N8        1.0000    0.22551   0.46069   0.07821   Biso      1.000     N          -0.371757           
         N9        1.0000    0.71013   0.73548   0.94813   Biso      1.000     N          -0.38479  
         N10       1.0000    0.21789   0.72306   0.19515   Biso      1.000     N          -0.362192           
         N11       1.0000    0.57623   0.62367   0.37503   Biso      1.000     N          -0.371921           
         N12       1.0000    0.77449   0.03931   0.57821   Biso      1.000     N          -0.371778           
         N13       1.0000    0.63096   0.93055   0.33336   Biso      1.000     N          -0.370084           
         N14       1.0000    0.87443   0.60089   0.46873   Biso      1.000     N          -0.145866           
         N15       1.0000    0.44078   0.59863   0.62931   Biso      1.000     N          -0.390613           
         N16       1.0000    0.92236   0.84011   0.45923   Biso      1.000     N          -0.381927           
         N17       1.0000    0.42984   0.87746   0.67580   Biso      1.000     N          -0.37763  
         N18       1.0000    0.01158   0.34845   0.49453   Biso      1.000     N          -0.159421           
         N19       1.0000    0.28987   0.76452   0.44813   Biso      1.000     N          -0.384794           
         N20       1.0000    0.87443   0.10089   0.03127   Biso      1.000     N          -0.145806           
         N21       1.0000    0.21789   0.22306   0.30485   Biso      1.000     N          -0.362207           
         N22       1.0000    0.12557   0.39911   0.53127   Biso      1.000     N          -0.14582  
         N23       1.0000    0.98842   0.65155   0.50547   Biso      1.000     N          -0.159392           
         N24       1.0000    0.77449   0.53931   0.92179   Biso      1.000     N          -0.371773           
         N25       1.0000    0.63096   0.43055   0.16664   Biso      1.000     N          -0.370087           
         N26       1.0000    0.57623   0.12367   0.12497   Biso      1.000     N          -0.37192600000000003          
         N27       1.0000    0.44078   0.09863   0.87069   Biso      1.000     N          -0.390625           
         N28       1.0000    0.92236   0.34011   0.04077   Biso      1.000     N          -0.381932           
         N29       1.0000    0.42984   0.37746   0.82420   Biso      1.000     N          -0.37764000000000003          
         N30       1.0000    0.71013   0.23548   0.55187   Biso      1.000     N          -0.384791           
         N31       1.0000    0.28987   0.26452   0.05187   Biso      1.000     N          -0.384804           
         N32       1.0000    0.01158   0.84845   0.00547   Biso      1.000     N          -0.159417           
         N33       1.0000    0.12557   0.89911   0.96873   Biso      1.000     N          -0.145808           
         N34       1.0000    0.22551   0.96069   0.42179   Biso      1.000     N          -0.371764           
         N35       1.0000    0.36904   0.06945   0.66664   Biso      1.000     N          -0.370071           
         N36       1.0000    0.42377   0.37633   0.62497   Biso      1.000     N          -0.371915           
         N37       1.0000    0.55922   0.40137   0.37069   Biso      1.000     N          -0.390604           
         N38       1.0000    0.78211   0.77694   0.69515   Biso      1.000     N          -0.362221           
         N39       1.0000    0.57016   0.12254   0.32420   Biso      1.000     N          -0.37762199999999996          
         N40       1.0000    0.78211   0.27694   0.80485   Biso      1.000     N          -0.362223           
         Nb1       1.0000    0.60395   0.30489   0.97872   Biso      1.000     Nb          0.77251   
         Nb2       1.0000    0.39605   0.19511   0.47872   Biso      1.000     Nb          0.772509  
         Nb3       1.0000    0.39605   0.69511   0.02128   Biso      1.000     Nb          0.772509  
         Nb4       1.0000    0.60395   0.80489   0.52128   Biso      1.000     Nb          0.772517 