
##########################################################################
#               Crystallographic Information Format file
#               Produced by PyCifRW module
#
#  This is a CIF file.  CIF has been adopted by the International
#  Union of Crystallography as the standard for data archiving and
#  transmission.
#
#  For information on this file format, follow the CIF links at
#  http://www.iucr.org
##########################################################################

data_image0

_cell_length_a                          9.6355
_cell_length_b                          13.9967
_cell_length_c                          14.174
_cell_angle_alpha                       90
_cell_angle_beta                        96.174
_cell_angle_gamma                       90
_symmetry_space_group_name_H-M          'P 1'
_symmetry_int_tables_number             1
loop_
  _symmetry_equiv_pos_as_xyz
         'x, y, z' 
loop_
  _atom_site_label
  _atom_site_occupancy
  _atom_site_fract_x
  _atom_site_fract_y
  _atom_site_fract_z
  _atom_site_thermal_displace_type
  _atom_site_B_iso_or_equiv
  _atom_site_type_symbol
  _atom_site_charge
         C1        1.0000    0.25520   0.59500   0.05940   Biso      1.000     C          -0.000837           
         C2        1.0000    0.74480   0.09500   0.44060   Biso      1.000     C          -0.000886           
         C3        1.0000    0.52590   0.12460   0.17810   Biso      1.000     C          0.041678  
         C4        1.0000    0.76530   0.32060   0.74060   Biso      1.000     C          -0.017346           
         C5        1.0000    0.31890   0.08650   0.62270   Biso      1.000     C          -0.017613           
         C6        1.0000    0.33240   0.44720   0.32760   Biso      1.000     C          -0.003254           
         C7        1.0000    0.44290   0.50820   0.79040   Biso      1.000     C          0.018305000000000002          
         C8        1.0000    0.51450   0.14920   0.35900   Biso      1.000     C          0.026614999999999996          
         C9        1.0000    0.88300   0.49910   0.78740   Biso      1.000     C          4.2e-05   
         C10       1.0000    0.74480   0.40500   0.94060   Biso      1.000     C          -0.00085  
         C11       1.0000    0.52590   0.37540   0.67810   Biso      1.000     C          0.041783999999999995          
         C12       1.0000    0.23470   0.82060   0.75940   Biso      1.000     C          -0.017293           
         C13       1.0000    0.68110   0.58650   0.87730   Biso      1.000     C          -0.01788  
         C14       1.0000    0.66760   0.94720   0.17240   Biso      1.000     C          -0.003557           
         C15       1.0000    0.55710   0.00820   0.70960   Biso      1.000     C          0.018289  
         C16       1.0000    0.48550   0.64920   0.14100   Biso      1.000     C          0.026394  
         C17       1.0000    0.11700   0.99910   0.71260   Biso      1.000     C          1.4000000000000001e-05        
         C18       1.0000    0.25520   0.90500   0.55940   Biso      1.000     C          -0.000907           
         C19       1.0000    0.47410   0.87540   0.82190   Biso      1.000     C          0.041530000000000004          
         C20       1.0000    0.44290   0.99180   0.29040   Biso      1.000     C          0.018277  
         C21       1.0000    0.33240   0.05280   0.82760   Biso      1.000     C          -0.00339  
         C22       1.0000    0.31890   0.41350   0.12270   Biso      1.000     C          -0.017752           
         C23       1.0000    0.76530   0.17940   0.24060   Biso      1.000     C          -0.017325999999999998         
         C24       1.0000    0.47410   0.62460   0.32190   Biso      1.000     C          0.041657  
         C25       1.0000    0.11700   0.50090   0.21260   Biso      1.000     C          1.1e-05   
         C26       1.0000    0.48550   0.85080   0.64100   Biso      1.000     C          0.026525  
         C27       1.0000    0.55710   0.49180   0.20960   Biso      1.000     C          0.018286  
         C28       1.0000    0.66760   0.55280   0.67240   Biso      1.000     C          -0.0033979999999999995        
         C29       1.0000    0.68110   0.91350   0.37730   Biso      1.000     C          -0.01772  
         C30       1.0000    0.23470   0.67940   0.25940   Biso      1.000     C          -0.017335           
         C31       1.0000    0.88300   0.00090   0.28740   Biso      1.000     C          2e-05     
         C32       1.0000    0.51450   0.35080   0.85900   Biso      1.000     C          0.026507  
         Mn1       1.0000    0.64680   0.78540   0.00670   Biso      1.000     Mn          0.995158  
         Mn2       1.0000    0.16300   0.61640   0.83940   Biso      1.000     Mn          0.946426  
         Mn3       1.0000    0.64680   0.71460   0.50670   Biso      1.000     Mn          0.9958950000000001  
         Mn4       1.0000    0.83700   0.11640   0.66060   Biso      1.000     Mn          0.946356  
         Mn5       1.0000    0.35320   0.21460   0.99330   Biso      1.000     Mn          0.9959049999999999  
         Mn6       1.0000    0.83700   0.38360   0.16060   Biso      1.000     Mn          0.9463590000000001  
         Mn7       1.0000    0.35320   0.28540   0.49330   Biso      1.000     Mn          0.996616  
         Mn8       1.0000    0.16300   0.88360   0.33940   Biso      1.000     Mn          0.9462879999999999  
         N1        1.0000    0.99500   0.52620   0.78530   Biso      1.000     N          -0.34666399999999997          
         N2        1.0000    0.78600   0.11470   0.51680   Biso      1.000     N          -0.342447           
         N3        1.0000    0.45810   0.16100   0.11760   Biso      1.000     N          -0.352277           
         N4        1.0000    0.99500   0.97380   0.28530   Biso      1.000     N          -0.346639           
         N5        1.0000    0.43810   0.30290   0.89370   Biso      1.000     N          -0.345848           
         N6        1.0000    0.33430   0.95980   0.29530   Biso      1.000     N          -0.335179           
         N7        1.0000    0.32980   0.10350   0.89040   Biso      1.000     N          -0.352292           
         N8        1.0000    0.30940   0.34530   0.07810   Biso      1.000     N          -0.345508           
         N9        1.0000    0.00500   0.47380   0.21470   Biso      1.000     N          -0.346629           
         N10       1.0000    0.21400   0.61470   0.98320   Biso      1.000     N          -0.342401           
         N11       1.0000    0.54190   0.66100   0.38240   Biso      1.000     N          -0.352283           
         N12       1.0000    0.81120   0.25300   0.71090   Biso      1.000     N          -0.340762           
         N13       1.0000    0.56190   0.80290   0.60630   Biso      1.000     N          -0.34586100000000003          
         N14       1.0000    0.66570   0.45980   0.20470   Biso      1.000     N          -0.33518600000000004          
         N15       1.0000    0.67020   0.60350   0.60960   Biso      1.000     N          -0.35231399999999996          
         N16       1.0000    0.81120   0.24700   0.21090   Biso      1.000     N          -0.340776           
         N17       1.0000    0.30940   0.15470   0.57810   Biso      1.000     N          -0.34565300000000004          
         N18       1.0000    0.18880   0.74700   0.28910   Biso      1.000     N          -0.340721           
         N19       1.0000    0.33430   0.54020   0.79530   Biso      1.000     N          -0.33519899999999997          
         N20       1.0000    0.69060   0.84530   0.42190   Biso      1.000     N          -0.345522           
         N21       1.0000    0.21400   0.88530   0.48320   Biso      1.000     N          -0.342414           
         N22       1.0000    0.54190   0.83900   0.88240   Biso      1.000     N          -0.35215  
         N23       1.0000    0.00500   0.02620   0.71470   Biso      1.000     N          -0.346629           
         N24       1.0000    0.56190   0.69710   0.10630   Biso      1.000     N          -0.34571799999999997          
         N25       1.0000    0.32980   0.39650   0.39040   Biso      1.000     N          -0.352455           
         N26       1.0000    0.66570   0.04020   0.70470   Biso      1.000     N          -0.33518400000000004          
         N27       1.0000    0.69060   0.65470   0.92190   Biso      1.000     N          -0.34537199999999996          
         N28       1.0000    0.18880   0.75300   0.78910   Biso      1.000     N          -0.340751           
         N29       1.0000    0.78600   0.38530   0.01680   Biso      1.000     N          -0.34241  
         N30       1.0000    0.45810   0.33900   0.61760   Biso      1.000     N          -0.35242199999999996          
         N31       1.0000    0.43810   0.19710   0.39370   Biso      1.000     N          -0.345998           
         N32       1.0000    0.67020   0.89650   0.10960   Biso      1.000     N          -0.35216  
         Nb1       1.0000    0.33870   0.54950   0.20610   Biso      1.000     Nb          0.771555  
         Nb2       1.0000    0.33870   0.95050   0.70610   Biso      1.000     Nb          0.771566  
         Nb3       1.0000    0.66130   0.45050   0.79390   Biso      1.000     Nb          0.7715770000000001  
         Nb4       1.0000    0.66130   0.04950   0.29390   Biso      1.000     Nb          0.771532 