
##########################################################################
#               Crystallographic Information Format file
#               Produced by PyCifRW module
#
#  This is a CIF file.  CIF has been adopted by the International
#  Union of Crystallography as the standard for data archiving and
#  transmission.
#
#  For information on this file format, follow the CIF links at
#  http://www.iucr.org
##########################################################################

data_image0

_cell_length_a                          10.6026
_cell_length_b                          10.6026
_cell_length_c                          10.9735
_cell_angle_alpha                       78.6595
_cell_angle_beta                        62.5585
_cell_angle_gamma                       108.634
_symmetry_space_group_name_H-M          'P 1'
_symmetry_int_tables_number             1
loop_
  _symmetry_equiv_pos_as_xyz
         'x, y, z' 
loop_
  _atom_site_label
  _atom_site_occupancy
  _atom_site_fract_x
  _atom_site_fract_y
  _atom_site_fract_z
  _atom_site_thermal_displace_type
  _atom_site_B_iso_or_equiv
  _atom_site_type_symbol
  _atom_site_charge
         C1        1.0000    0.16550   0.20990   0.28280   Biso      1.000     C          -0.545471           
         C2        1.0000    0.40050   0.62490   0.37440   Biso      1.000     C          0.686419  
         C3        1.0000    0.90490   0.35020   0.16730   Biso      1.000     C          0.735781  
         C4        1.0000    0.99270   0.44830   0.21720   Biso      1.000     C          -0.5492819999999999           
         C5        1.0000    0.95240   0.56930   0.24270   Biso      1.000     C          0.8055359999999999  
         C6        1.0000    0.50070   0.22510   0.87440   Biso      1.000     C          0.6854    
         C7        1.0000    0.98250   0.92780   0.66730   Biso      1.000     C          0.73216   
         C8        1.0000    0.83450   0.79010   0.71720   Biso      1.000     C          -0.545471           
         C9        1.0000    0.68800   0.80490   0.74270   Biso      1.000     C          0.8057300000000001  
         C10       1.0000    0.59950   0.37510   0.62560   Biso      1.000     C          0.686419  
         C11       1.0000    0.09510   0.64980   0.83270   Biso      1.000     C          0.735781  
         C12       1.0000    0.00730   0.55170   0.78280   Biso      1.000     C          -0.5492819999999999           
         C13       1.0000    0.04760   0.43070   0.75730   Biso      1.000     C          0.805535  
         C14       1.0000    0.01750   0.07220   0.33270   Biso      1.000     C          0.732161  
         C15       1.0000    0.49930   0.77490   0.12560   Biso      1.000     C          0.6854    
         C16       1.0000    0.62440   0.37440   0.75000   Biso      1.000     C          -0.305112           
         C17       1.0000    0.37560   0.62560   0.25000   Biso      1.000     C          -0.305112           
         C18       1.0000    0.31200   0.19510   0.25730   Biso      1.000     C          0.8057300000000001  
         H1        1.0000    0.70120   0.45120   0.75000   Biso      1.000     H          0.189897  
         H2        1.0000    0.13000   0.24780   0.35780   Biso      1.000     H          0.169495  
         H3        1.0000    0.19370   0.27540   0.18970   Biso      1.000     H          0.18904100000000001           
         H4        1.0000    0.10560   0.48780   0.14220   Biso      1.000     H          0.170979  
         H5        1.0000    0.96510   0.38340   0.31030   Biso      1.000     H          0.18906199999999998           
         H6        1.0000    0.87000   0.75220   0.64220   Biso      1.000     H          0.169495  
         H7        1.0000    0.80630   0.72460   0.81030   Biso      1.000     H          0.18904100000000001           
         H8        1.0000    0.89440   0.51220   0.85780   Biso      1.000     H          0.170979  
         H9        1.0000    0.03490   0.61660   0.68970   Biso      1.000     H          0.18906199999999998           
         H10       1.0000    0.29880   0.54880   0.25000   Biso      1.000     H          0.189897  
         Nd1       1.0000    0.44937   0.63595   0.61984   Biso      1.000     Nd          2.201622  
         Nd2       1.0000    0.24421   0.93079   0.11984   Biso      1.000     Nd          2.201647  
         Nd3       1.0000    0.55063   0.36405   0.38016   Biso      1.000     Nd          2.201621  
         Nd4       1.0000    0.75579   0.06921   0.88016   Biso      1.000     Nd          2.2016459999999998  
         O1        1.0000    0.03380   0.98100   0.27420   Biso      1.000     O          -0.781594           
         O2        1.0000    0.88410   0.05670   0.42720   Biso      1.000     O          -0.573496           
         O3        1.0000    0.39500   0.28220   0.28580   Biso      1.000     O          -0.772564           
         O4        1.0000    0.34710   0.10530   0.21020   Biso      1.000     O          -0.684761           
         O5        1.0000    0.36570   0.70620   0.44110   Biso      1.000     O          -0.597129           
         O6        1.0000    0.46060   0.55010   0.40810   Biso      1.000     O          -0.7716970000000001           
         O7        1.0000    0.75520   0.30800   0.22580   Biso      1.000     O          -0.783242           
         O8        1.0000    0.98390   0.31130   0.07280   Biso      1.000     O          -0.573674           
         O9        1.0000    0.06800   0.68080   0.21420   Biso      1.000     O          -0.7714489999999999           
         O10       1.0000    0.81550   0.55730   0.28980   Biso      1.000     O          -0.685145           
         O11       1.0000    0.35270   0.19320   0.94110   Biso      1.000     O          -0.596424           
         O12       1.0000    0.54180   0.13130   0.90810   Biso      1.000     O          -0.771728           
         O13       1.0000    0.96620   0.01900   0.72580   Biso      1.000     O          -0.781594           
         O14       1.0000    0.11590   0.94330   0.57280   Biso      1.000     O          -0.573496           
         O15       1.0000    0.60500   0.71780   0.71420   Biso      1.000     O          -0.772564           
         O16       1.0000    0.65290   0.89470   0.78980   Biso      1.000     O          -0.68476  
         O17       1.0000    0.63430   0.29380   0.55890   Biso      1.000     O          -0.597129           
         O18       1.0000    0.53940   0.44990   0.59190   Biso      1.000     O          -0.7716970000000001           
         O19       1.0000    0.24480   0.69200   0.77420   Biso      1.000     O          -0.783242           
         O20       1.0000    0.01610   0.68870   0.92720   Biso      1.000     O          -0.573674           
         O21       1.0000    0.93200   0.31920   0.78580   Biso      1.000     O          -0.7714489999999999           
         O22       1.0000    0.18450   0.44270   0.71020   Biso      1.000     O          -0.685145           
         O23       1.0000    0.45820   0.86870   0.09190   Biso      1.000     O          -0.771728           
         O24       1.0000    0.64730   0.80680   0.05890   Biso      1.000     O          -0.596424 