
##########################################################################
#               Crystallographic Information Format file
#               Produced by PyCifRW module
#
#  This is a CIF file.  CIF has been adopted by the International
#  Union of Crystallography as the standard for data archiving and
#  transmission.
#
#  For information on this file format, follow the CIF links at
#  http://www.iucr.org
##########################################################################

data_image0

_cell_length_a                          25.7542
_cell_length_b                          25.7542
_cell_length_c                          6.755
_cell_angle_alpha                       90
_cell_angle_beta                        90
_cell_angle_gamma                       120
_symmetry_space_group_name_H-M          'P 1'
_symmetry_int_tables_number             1
loop_
  _symmetry_equiv_pos_as_xyz
         'x, y, z' 
loop_
  _atom_site_label
  _atom_site_occupancy
  _atom_site_fract_x
  _atom_site_fract_y
  _atom_site_fract_z
  _atom_site_thermal_displace_type
  _atom_site_B_iso_or_equiv
  _atom_site_type_symbol
  _atom_site_charge
         C1        1.0000    0.25941   0.34381   0.58849   Biso      1.000     C          0.633096  
         C2        1.0000    0.87108   0.21344   0.54819   Biso      1.000     C          -0.145452           
         C3        1.0000    0.77429   0.11793   0.58757   Biso      1.000     C          0.275685  
         C4        1.0000    0.81590   0.16938   0.47210   Biso      1.000     C          -0.17344600000000002          
         C5        1.0000    0.83604   0.68681   0.86124   Biso      1.000     C          -0.174549           
         C6        1.0000    0.78459   0.67697   0.74577   Biso      1.000     C          0.276328  
         C7        1.0000    0.88010   0.67569   0.78515   Biso      1.000     C          -0.144764           
         C8        1.0000    0.92607   0.67715   0.92183   Biso      1.000     C          0.636281  
         C9        1.0000    0.40726   0.98952   0.74484   Biso      1.000     C          0.63468   
         C10       1.0000    0.45323   0.99098   0.88152   Biso      1.000     C          -0.146412           
         C11       1.0000    0.54874   0.98970   0.92090   Biso      1.000     C          0.276997  
         C12       1.0000    0.49729   0.97986   0.80543   Biso      1.000     C          -0.17388699999999999          
         C13       1.0000    0.16938   0.35347   0.52790   Biso      1.000     C          -0.173517           
         C14       1.0000    0.11793   0.34363   0.41243   Biso      1.000     C          0.275972  
         C15       1.0000    0.21344   0.34235   0.45181   Biso      1.000     C          -0.14549700000000002          
         C16       1.0000    0.31319   0.14924   0.86124   Biso      1.000     C          -0.17419500000000002          
         C17       1.0000    0.91559   0.25941   0.41151   Biso      1.000     C          0.63346   
         C18       1.0000    0.98952   0.58226   0.25516   Biso      1.000     C          0.6346609999999999  
         C19       1.0000    0.99098   0.53775   0.11848   Biso      1.000     C          -0.14641300000000002          
         C20       1.0000    0.98970   0.44096   0.07910   Biso      1.000     C          0.276998  
         C21       1.0000    0.32303   0.10763   0.74577   Biso      1.000     C          0.276233  
         C22       1.0000    0.32431   0.20442   0.78515   Biso      1.000     C          -0.144966           
         C23       1.0000    0.32285   0.24893   0.92183   Biso      1.000     C          0.6361859999999999  
         C24       1.0000    0.58226   0.59274   0.74484   Biso      1.000     C          0.6346729999999999  
         C25       1.0000    0.53775   0.54677   0.88152   Biso      1.000     C          -0.146419           
         C26       1.0000    0.44096   0.45126   0.92090   Biso      1.000     C          0.276995  
         C27       1.0000    0.48257   0.50271   0.80543   Biso      1.000     C          -0.17388900000000002          
         C28       1.0000    0.07393   0.32285   0.07817   Biso      1.000     C          0.636281  
         C29       1.0000    0.64653   0.81590   0.52790   Biso      1.000     C          -0.173282           
         C30       1.0000    0.65765   0.87108   0.45181   Biso      1.000     C          -0.145492           
         C31       1.0000    0.65619   0.91559   0.58849   Biso      1.000     C          0.633309  
         C32       1.0000    0.24893   0.92607   0.07817   Biso      1.000     C          0.636476  
         C33       1.0000    0.20442   0.88010   0.21485   Biso      1.000     C          -0.144929           
         C34       1.0000    0.10763   0.78459   0.25423   Biso      1.000     C          0.27631700000000003           
         C35       1.0000    0.14924   0.83604   0.13876   Biso      1.000     C          -0.1744   
         C36       1.0000    0.97986   0.48257   0.19457   Biso      1.000     C          -0.17388199999999998          
         C37       1.0000    0.65637   0.77429   0.41243   Biso      1.000     C          0.27574299999999996           
         C38       1.0000    0.11990   0.32431   0.21485   Biso      1.000     C          -0.144764           
         C39       1.0000    0.35347   0.18410   0.47210   Biso      1.000     C          -0.173282           
         C40       1.0000    0.16396   0.31319   0.13876   Biso      1.000     C          -0.174549           
         C41       1.0000    0.18410   0.83062   0.52790   Biso      1.000     C          -0.173447           
         C42       1.0000    0.22571   0.88207   0.41243   Biso      1.000     C          0.275685  
         C43       1.0000    0.12892   0.78656   0.45181   Biso      1.000     C          -0.145452           
         C44       1.0000    0.08441   0.74059   0.58849   Biso      1.000     C          0.63346   
         C45       1.0000    0.67715   0.75107   0.07817   Biso      1.000     C          0.6361859999999999  
         C46       1.0000    0.67569   0.79558   0.21485   Biso      1.000     C          -0.144966           
         C47       1.0000    0.67697   0.89237   0.25423   Biso      1.000     C          0.276233  
         C48       1.0000    0.68681   0.85076   0.13876   Biso      1.000     C          -0.17419400000000002          
         C49       1.0000    0.51743   0.49729   0.19457   Biso      1.000     C          -0.17388900000000002          
         C50       1.0000    0.55904   0.54874   0.07910   Biso      1.000     C          0.276995  
         C51       1.0000    0.46225   0.45323   0.11848   Biso      1.000     C          -0.146419           
         C52       1.0000    0.41774   0.40726   0.25516   Biso      1.000     C          0.6346729999999999  
         C53       1.0000    0.34381   0.08441   0.41151   Biso      1.000     C          0.633309  
         C54       1.0000    0.34235   0.12892   0.54819   Biso      1.000     C          -0.145492           
         C55       1.0000    0.34363   0.22571   0.58757   Biso      1.000     C          0.27574299999999996           
         C56       1.0000    0.21541   0.32303   0.25423   Biso      1.000     C          0.276328  
         C57       1.0000    0.01030   0.55904   0.92090   Biso      1.000     C          0.276998  
         C58       1.0000    0.02014   0.51743   0.80543   Biso      1.000     C          -0.17388199999999998          
         C59       1.0000    0.01048   0.41774   0.74484   Biso      1.000     C          0.6346609999999999  
         C60       1.0000    0.50271   0.02014   0.19457   Biso      1.000     C          -0.17388699999999999          
         C61       1.0000    0.45126   0.01030   0.07910   Biso      1.000     C          0.276997  
         C62       1.0000    0.54677   0.00902   0.11848   Biso      1.000     C          -0.146412           
         C63       1.0000    0.59274   0.01048   0.25516   Biso      1.000     C          0.63468   
         C64       1.0000    0.74059   0.65619   0.41151   Biso      1.000     C          0.633096  
         C65       1.0000    0.00902   0.46225   0.88152   Biso      1.000     C          -0.14641300000000002          
         C66       1.0000    0.88207   0.65637   0.58757   Biso      1.000     C          0.275972  
         C67       1.0000    0.83062   0.64653   0.47210   Biso      1.000     C          -0.173517           
         C68       1.0000    0.78656   0.65765   0.54819   Biso      1.000     C          -0.14549700000000002          
         C69       1.0000    0.85076   0.16396   0.86124   Biso      1.000     C          -0.174401           
         C70       1.0000    0.89237   0.21541   0.74577   Biso      1.000     C          0.27631700000000003           
         C71       1.0000    0.79558   0.11990   0.78515   Biso      1.000     C          -0.144929           
         C72       1.0000    0.75107   0.07393   0.92183   Biso      1.000     C          0.636476  
         H1        1.0000    0.70143   0.86133   0.00567   Biso      1.000     H          0.147484  
         H2        1.0000    0.47200   0.50676   0.67234   Biso      1.000     H          0.14796600000000001           
         H3        1.0000    0.80533   0.17343   0.33901   Biso      1.000     H          0.147839  
         H4        1.0000    0.13867   0.84009   0.00567   Biso      1.000     H          0.147525  
         H5        1.0000    0.49324   0.96524   0.67234   Biso      1.000     H          0.14796700000000002           
         H6        1.0000    0.03476   0.52800   0.67234   Biso      1.000     H          0.14796900000000002           
         H7        1.0000    0.15991   0.29857   0.00567   Biso      1.000     H          0.14757699999999999           
         H8        1.0000    0.82657   0.63191   0.33901   Biso      1.000     H          0.14776199999999998           
         H9        1.0000    0.29857   0.13867   0.99433   Biso      1.000     H          0.147484  
         H10       1.0000    0.36809   0.19467   0.33901   Biso      1.000     H          0.14774600000000002           
         H11       1.0000    0.19467   0.82657   0.66099   Biso      1.000     H          0.147839  
         H12       1.0000    0.96524   0.47200   0.32766   Biso      1.000     H          0.14796900000000002           
         H13       1.0000    0.50676   0.03476   0.32766   Biso      1.000     H          0.14796700000000002           
         H14       1.0000    0.84009   0.70143   0.99433   Biso      1.000     H          0.14757699999999999           
         H15       1.0000    0.86133   0.15991   0.99433   Biso      1.000     H          0.147525  
         H16       1.0000    0.63191   0.80533   0.66099   Biso      1.000     H          0.14774600000000002           
         H17       1.0000    0.52800   0.49324   0.32766   Biso      1.000     H          0.14796600000000001           
         H18       1.0000    0.17343   0.36809   0.66099   Biso      1.000     H          0.14776199999999998           
         Ni1       1.0000    0.64787   0.02925   0.64710   Biso      1.000     Ni          0.919227  
         Ni2       1.0000    0.95195   0.31454   0.01957   Biso      1.000     Ni          0.918328  
         Ni3       1.0000    0.68546   0.63742   0.01957   Biso      1.000     Ni          0.918256  
         Ni4       1.0000    0.31454   0.36258   0.98043   Biso      1.000     Ni          0.918256  
         Ni5       1.0000    0.97075   0.61862   0.64710   Biso      1.000     Ni          0.919221  
         Ni6       1.0000    0.38138   0.35213   0.64710   Biso      1.000     Ni          0.9191239999999999  
         Ni7       1.0000    0.35213   0.97075   0.35290   Biso      1.000     Ni          0.919227  
         Ni8       1.0000    0.01880   0.30408   0.68623   Biso      1.000     Ni          0.919257  
         Ni9       1.0000    0.98120   0.69592   0.31377   Biso      1.000     Ni          0.919258  
         Ni10      1.0000    0.02925   0.38138   0.35290   Biso      1.000     Ni          0.919221  
         Ni11      1.0000    0.63742   0.95195   0.98043   Biso      1.000     Ni          0.9183049999999999  
         Ni12      1.0000    0.61862   0.64787   0.35290   Biso      1.000     Ni          0.9191239999999999  
         Ni13      1.0000    0.28529   0.98120   0.68623   Biso      1.000     Ni          0.9192520000000001  
         Ni14      1.0000    0.71471   0.01880   0.31377   Biso      1.000     Ni          0.9192520000000001  
         Ni15      1.0000    0.69592   0.71471   0.68623   Biso      1.000     Ni          0.91919   
         Ni16      1.0000    0.36258   0.04805   0.01957   Biso      1.000     Ni          0.9183040000000001  
         Ni17      1.0000    0.04805   0.68546   0.98043   Biso      1.000     Ni          0.918328  
         Ni18      1.0000    0.30408   0.28529   0.31377   Biso      1.000     Ni          0.91919   
         O1        1.0000    0.43786   0.40771   0.43705   Biso      1.000     O          -0.558624           
         O2        1.0000    0.36879   0.36541   0.21820   Biso      1.000     O          -0.540691           
         O3        1.0000    0.61356   0.58369   0.15751   Biso      1.000     O          -0.559103           
         O4        1.0000    0.59229   0.03015   0.43705   Biso      1.000     O          -0.558646           
         O5        1.0000    0.36320   0.28023   0.50916   Biso      1.000     O          -0.559228           
         O6        1.0000    0.33671   0.03546   0.44847   Biso      1.000     O          -0.5402020000000001           
         O7        1.0000    0.03015   0.43786   0.56295   Biso      1.000     O          -0.558652           
         O8        1.0000    0.36348   0.10453   0.22962   Biso      1.000     O          -0.55735  
         O9        1.0000    0.67005   0.70212   0.11513   Biso      1.000     O          -0.542194           
         O10       1.0000    0.00338   0.36879   0.78180   Biso      1.000     O          -0.540674           
         O11       1.0000    0.02987   0.61356   0.84249   Biso      1.000     O          -0.559132           
         O12       1.0000    0.94689   0.25036   0.82418   Biso      1.000     O          -0.558845           
         O13       1.0000    0.70212   0.03208   0.88487   Biso      1.000     O          -0.542312           
         O14       1.0000    0.77119   0.07438   0.10372   Biso      1.000     O          -0.558635           
         O15       1.0000    0.10453   0.74104   0.77038   Biso      1.000     O          -0.557409           
         O16       1.0000    0.03546   0.69874   0.55153   Biso      1.000     O          -0.540303           
         O17       1.0000    0.63459   0.00338   0.21820   Biso      1.000     O          -0.540713           
         O18       1.0000    0.28023   0.91702   0.49084   Biso      1.000     O          -0.559254           
         O19       1.0000    0.69682   0.77119   0.89628   Biso      1.000     O          -0.5584859999999999           
         O20       1.0000    0.69654   0.94689   0.17582   Biso      1.000     O          -0.5588930000000001           
         O21       1.0000    0.41631   0.02987   0.15751   Biso      1.000     O          -0.559116           
         O22       1.0000    0.56214   0.59229   0.56295   Biso      1.000     O          -0.558624           
         O23       1.0000    0.69874   0.66329   0.44847   Biso      1.000     O          -0.5400119999999999           
         O24       1.0000    0.63121   0.63459   0.78180   Biso      1.000     O          -0.540691           
         O25       1.0000    0.38644   0.41631   0.84249   Biso      1.000     O          -0.559103           
         O26       1.0000    0.30346   0.05311   0.82418   Biso      1.000     O          -0.5588930000000001           
         O27       1.0000    0.32995   0.29788   0.88487   Biso      1.000     O          -0.542194           
         O28       1.0000    0.30318   0.22881   0.10372   Biso      1.000     O          -0.5584859999999999           
         O29       1.0000    0.22881   0.92562   0.89628   Biso      1.000     O          -0.558635           
         O30       1.0000    0.29788   0.96792   0.11513   Biso      1.000     O          -0.542312           
         O31       1.0000    0.05311   0.74964   0.17582   Biso      1.000     O          -0.558845           
         O32       1.0000    0.63680   0.71977   0.49084   Biso      1.000     O          -0.559228           
         O33       1.0000    0.66329   0.96454   0.55153   Biso      1.000     O          -0.5402020000000001           
         O34       1.0000    0.63652   0.89547   0.77038   Biso      1.000     O          -0.55735  
         O35       1.0000    0.89547   0.25896   0.22962   Biso      1.000     O          -0.557409           
         O36       1.0000    0.96454   0.30126   0.44847   Biso      1.000     O          -0.540303           
         O37       1.0000    0.71977   0.08298   0.50916   Biso      1.000     O          -0.559254           
         O38       1.0000    0.97013   0.38644   0.15751   Biso      1.000     O          -0.559132           
         O39       1.0000    0.99662   0.63121   0.21820   Biso      1.000     O          -0.540674           
         O40       1.0000    0.96985   0.56214   0.43705   Biso      1.000     O          -0.558652           
         O41       1.0000    0.40771   0.96985   0.56295   Biso      1.000     O          -0.558646           
         O42       1.0000    0.36541   0.99662   0.78180   Biso      1.000     O          -0.540713           
         O43       1.0000    0.58369   0.97013   0.84249   Biso      1.000     O          -0.559116           
         O44       1.0000    0.74964   0.69654   0.82418   Biso      1.000     O          -0.558837           
         O45       1.0000    0.96792   0.67005   0.88487   Biso      1.000     O          -0.542313           
         O46       1.0000    0.92562   0.69682   0.10372   Biso      1.000     O          -0.5585220000000001           
         O47       1.0000    0.07438   0.30318   0.89628   Biso      1.000     O          -0.5585220000000001           
         O48       1.0000    0.03208   0.32995   0.11513   Biso      1.000     O          -0.542313           
         O49       1.0000    0.25036   0.30346   0.17582   Biso      1.000     O          -0.5588380000000001           
         O50       1.0000    0.30126   0.33671   0.55153   Biso      1.000     O          -0.5400119999999999           
         O51       1.0000    0.25896   0.36348   0.77038   Biso      1.000     O          -0.557253           
         O52       1.0000    0.74104   0.63652   0.22962   Biso      1.000     O          -0.557253           
         O53       1.0000    0.91702   0.63680   0.50916   Biso      1.000     O          -0.559292           
         O54       1.0000    0.08298   0.36320   0.49084   Biso      1.000     O          -0.559292 