
##########################################################################
#               Crystallographic Information Format file
#               Produced by PyCifRW module
#
#  This is a CIF file.  CIF has been adopted by the International
#  Union of Crystallography as the standard for data archiving and
#  transmission.
#
#  For information on this file format, follow the CIF links at
#  http://www.iucr.org
##########################################################################

data_image0

_cell_length_a                          25.7611
_cell_length_b                          25.7611
_cell_length_c                          6.7565
_cell_angle_alpha                       90
_cell_angle_beta                        90
_cell_angle_gamma                       120
_symmetry_space_group_name_H-M          'P 1'
_symmetry_int_tables_number             1
loop_
  _symmetry_equiv_pos_as_xyz
         'x, y, z' 
loop_
  _atom_site_label
  _atom_site_occupancy
  _atom_site_fract_x
  _atom_site_fract_y
  _atom_site_fract_z
  _atom_site_thermal_displace_type
  _atom_site_B_iso_or_equiv
  _atom_site_type_symbol
  _atom_site_charge
         C1        1.0000    0.25930   0.34257   0.58301   Biso      1.000     C          0.63346   
         C2        1.0000    0.87257   0.21258   0.55255   Biso      1.000     C          -0.139768           
         C3        1.0000    0.77641   0.11631   0.58978   Biso      1.000     C          0.284281  
         C4        1.0000    0.81758   0.16836   0.47580   Biso      1.000     C          -0.173504           
         C5        1.0000    0.83502   0.68411   0.85754   Biso      1.000     C          -0.172503           
         C6        1.0000    0.78297   0.67323   0.74356   Biso      1.000     C          0.284222  
         C7        1.0000    0.87924   0.67334   0.78079   Biso      1.000     C          -0.141198           
         C8        1.0000    0.92596   0.67591   0.91635   Biso      1.000     C          0.6346970000000001  
         C9        1.0000    0.40737   0.99076   0.75032   Biso      1.000     C          0.633563  
         C10       1.0000    0.45409   0.99333   0.88588   Biso      1.000     C          -0.13938399999999998          
         C11       1.0000    0.55036   0.99344   0.92311   Biso      1.000     C          0.284968  
         C12       1.0000    0.49831   0.98256   0.80913   Biso      1.000     C          -0.174351           
         C13       1.0000    0.16836   0.35077   0.52420   Biso      1.000     C          -0.173289           
         C14       1.0000    0.11631   0.33989   0.41022   Biso      1.000     C          0.28433   
         C15       1.0000    0.21258   0.34000   0.44745   Biso      1.000     C          -0.140023           
         C16       1.0000    0.31589   0.15092   0.85754   Biso      1.000     C          -0.172401           
         C17       1.0000    0.91672   0.25930   0.41699   Biso      1.000     C          0.633447  
         C18       1.0000    0.99076   0.58339   0.24968   Biso      1.000     C          0.6335390000000001  
         C19       1.0000    0.99333   0.53924   0.11412   Biso      1.000     C          -0.139382           
         C20       1.0000    0.99344   0.44308   0.07689   Biso      1.000     C          0.284947  
         C21       1.0000    0.32677   0.10975   0.74356   Biso      1.000     C          0.283909  
         C22       1.0000    0.32666   0.20591   0.78079   Biso      1.000     C          -0.14103800000000002          
         C23       1.0000    0.32409   0.25006   0.91635   Biso      1.000     C          0.634574  
         C24       1.0000    0.58339   0.59263   0.75032   Biso      1.000     C          0.633559  
         C25       1.0000    0.53924   0.54591   0.88588   Biso      1.000     C          -0.13938599999999998          
         C26       1.0000    0.44308   0.44964   0.92311   Biso      1.000     C          0.28494899999999995           
         C27       1.0000    0.48425   0.50169   0.80913   Biso      1.000     C          -0.174353           
         C28       1.0000    0.07404   0.32409   0.08365   Biso      1.000     C          0.634695  
         C29       1.0000    0.64923   0.81758   0.52420   Biso      1.000     C          -0.173569           
         C30       1.0000    0.66000   0.87257   0.44745   Biso      1.000     C          -0.139461           
         C31       1.0000    0.65743   0.91672   0.58301   Biso      1.000     C          0.633146  
         C32       1.0000    0.25006   0.92596   0.08365   Biso      1.000     C          0.634749  
         C33       1.0000    0.20591   0.87924   0.21921   Biso      1.000     C          -0.14114100000000002          
         C34       1.0000    0.10975   0.78297   0.25644   Biso      1.000     C          0.28417800000000004           
         C35       1.0000    0.15092   0.83502   0.14246   Biso      1.000     C          -0.172521           
         C36       1.0000    0.98256   0.48425   0.19087   Biso      1.000     C          -0.174348           
         C37       1.0000    0.66011   0.77641   0.41022   Biso      1.000     C          0.284292  
         C38       1.0000    0.12076   0.32666   0.21921   Biso      1.000     C          -0.141181           
         C39       1.0000    0.35077   0.18242   0.47580   Biso      1.000     C          -0.173573           
         C40       1.0000    0.16498   0.31589   0.14246   Biso      1.000     C          -0.172506           
         C41       1.0000    0.18242   0.83164   0.52420   Biso      1.000     C          -0.173507           
         C42       1.0000    0.22359   0.88369   0.41022   Biso      1.000     C          0.28429499999999996           
         C43       1.0000    0.12743   0.78742   0.44745   Biso      1.000     C          -0.139751           
         C44       1.0000    0.08328   0.74070   0.58301   Biso      1.000     C          0.633446  
         C45       1.0000    0.67591   0.74994   0.08365   Biso      1.000     C          0.634572  
         C46       1.0000    0.67334   0.79409   0.21921   Biso      1.000     C          -0.141022           
         C47       1.0000    0.67323   0.89025   0.25644   Biso      1.000     C          0.28392399999999995           
         C48       1.0000    0.68411   0.84908   0.14246   Biso      1.000     C          -0.172405           
         C49       1.0000    0.51575   0.49831   0.19087   Biso      1.000     C          -0.17435599999999998          
         C50       1.0000    0.55692   0.55036   0.07689   Biso      1.000     C          0.284963  
         C51       1.0000    0.46076   0.45409   0.11412   Biso      1.000     C          -0.139371           
         C52       1.0000    0.41661   0.40737   0.24968   Biso      1.000     C          0.6335569999999999  
         C53       1.0000    0.34257   0.08328   0.41699   Biso      1.000     C          0.6331439999999999  
         C54       1.0000    0.34000   0.12743   0.55255   Biso      1.000     C          -0.139444           
         C55       1.0000    0.33989   0.22359   0.58978   Biso      1.000     C          0.28430700000000003           
         C56       1.0000    0.21703   0.32677   0.25644   Biso      1.000     C          0.284238  
         C57       1.0000    0.00656   0.55692   0.92311   Biso      1.000     C          0.28496   
         C58       1.0000    0.01744   0.51575   0.80913   Biso      1.000     C          -0.174351           
         C59       1.0000    0.00924   0.41661   0.75032   Biso      1.000     C          0.633538  
         C60       1.0000    0.50169   0.01744   0.19087   Biso      1.000     C          -0.174354           
         C61       1.0000    0.44964   0.00656   0.07689   Biso      1.000     C          0.284982  
         C62       1.0000    0.54591   0.00667   0.11412   Biso      1.000     C          -0.139369           
         C63       1.0000    0.59263   0.00924   0.24968   Biso      1.000     C          0.6335609999999999  
         C64       1.0000    0.74070   0.65743   0.41699   Biso      1.000     C          0.633458  
         C65       1.0000    0.00667   0.46076   0.88588   Biso      1.000     C          -0.13936700000000002          
         C66       1.0000    0.88369   0.66011   0.58978   Biso      1.000     C          0.284344  
         C67       1.0000    0.83164   0.64923   0.47580   Biso      1.000     C          -0.173293           
         C68       1.0000    0.78742   0.66000   0.55255   Biso      1.000     C          -0.140006           
         C69       1.0000    0.84908   0.16498   0.85754   Biso      1.000     C          -0.172524           
         C70       1.0000    0.89025   0.21703   0.74356   Biso      1.000     C          0.284194  
         C71       1.0000    0.79409   0.12076   0.78079   Biso      1.000     C          -0.141125           
         C72       1.0000    0.74994   0.07404   0.91635   Biso      1.000     C          0.6347470000000001  
         H1        1.0000    0.69921   0.85983   0.00996   Biso      1.000     H          0.143344  
         H2        1.0000    0.47350   0.50604   0.67663   Biso      1.000     H          0.143584  
         H3        1.0000    0.80683   0.17271   0.34330   Biso      1.000     H          0.14373699999999998           
         H4        1.0000    0.14017   0.83937   0.00996   Biso      1.000     H          0.143459  
         H5        1.0000    0.49396   0.96746   0.67663   Biso      1.000     H          0.143584  
         H6        1.0000    0.03254   0.52650   0.67663   Biso      1.000     H          0.143585  
         H7        1.0000    0.16063   0.30079   0.00996   Biso      1.000     H          0.143539  
         H8        1.0000    0.82729   0.63413   0.34330   Biso      1.000     H          0.14363199999999998           
         H9        1.0000    0.30079   0.14017   0.99004   Biso      1.000     H          0.143344  
         H10       1.0000    0.36587   0.19317   0.34330   Biso      1.000     H          0.143726  
         H11       1.0000    0.19317   0.82729   0.65670   Biso      1.000     H          0.14373699999999998           
         H12       1.0000    0.96746   0.47350   0.32337   Biso      1.000     H          0.143585  
         H13       1.0000    0.50604   0.03254   0.32337   Biso      1.000     H          0.143584  
         H14       1.0000    0.83937   0.69921   0.99004   Biso      1.000     H          0.143538  
         H15       1.0000    0.85983   0.16063   0.99004   Biso      1.000     H          0.143459  
         H16       1.0000    0.63413   0.80683   0.65670   Biso      1.000     H          0.143726  
         H17       1.0000    0.52650   0.49396   0.32337   Biso      1.000     H          0.143584  
         H18       1.0000    0.17271   0.36587   0.65670   Biso      1.000     H          0.14363199999999998           
         Ni1       1.0000    0.64832   0.03083   0.64630   Biso      1.000     Ni          0.9275200000000001  
         Ni2       1.0000    0.95082   0.31499   0.02037   Biso      1.000     Ni          0.92769   
         Ni3       1.0000    0.68501   0.63584   0.02037   Biso      1.000     Ni          0.9277700000000001  
         Ni4       1.0000    0.31499   0.36416   0.97963   Biso      1.000     Ni          0.9277700000000001  
         Ni5       1.0000    0.96917   0.61749   0.64630   Biso      1.000     Ni          0.927485  
         Ni6       1.0000    0.38251   0.35168   0.64630   Biso      1.000     Ni          0.9276190000000001  
         Ni7       1.0000    0.35168   0.96917   0.35370   Biso      1.000     Ni          0.9275209999999999  
         Ni8       1.0000    0.01835   0.30250   0.68703   Biso      1.000     Ni          0.9277219999999999  
         Ni9       1.0000    0.98165   0.69750   0.31297   Biso      1.000     Ni          0.9277209999999999  
         Ni10      1.0000    0.03083   0.38251   0.35370   Biso      1.000     Ni          0.927485  
         Ni11      1.0000    0.63584   0.95082   0.97963   Biso      1.000     Ni          0.927692  
         Ni12      1.0000    0.61749   0.64832   0.35370   Biso      1.000     Ni          0.9276190000000001  
         Ni13      1.0000    0.28416   0.98165   0.68703   Biso      1.000     Ni          0.927717  
         Ni14      1.0000    0.71584   0.01835   0.31297   Biso      1.000     Ni          0.927717  
         Ni15      1.0000    0.69750   0.71584   0.68703   Biso      1.000     Ni          0.9277620000000001  
         Ni16      1.0000    0.36416   0.04918   0.02037   Biso      1.000     Ni          0.927693  
         Ni17      1.0000    0.04918   0.68501   0.97963   Biso      1.000     Ni          0.9276909999999999  
         Ni18      1.0000    0.30250   0.28416   0.31297   Biso      1.000     Ni          0.9277620000000001  
         O1        1.0000    0.43692   0.40746   0.43097   Biso      1.000     O          -0.567883           
         O2        1.0000    0.36788   0.36529   0.21197   Biso      1.000     O          -0.531482           
         O3        1.0000    0.61137   0.58552   0.15552   Biso      1.000     O          -0.5764239999999999           
         O4        1.0000    0.59254   0.02946   0.43097   Biso      1.000     O          -0.567868           
         O5        1.0000    0.35918   0.27804   0.51115   Biso      1.000     O          -0.576263           
         O6        1.0000    0.33592   0.03455   0.45470   Biso      1.000     O          -0.5311060000000001           
         O7        1.0000    0.02946   0.43692   0.56903   Biso      1.000     O          -0.567863           
         O8        1.0000    0.36279   0.10359   0.23570   Biso      1.000     O          -0.5684640000000001           
         O9        1.0000    0.66926   0.70121   0.12136   Biso      1.000     O          -0.5325300000000001           
         O10       1.0000    0.00259   0.36788   0.78803   Biso      1.000     O          -0.531461           
         O11       1.0000    0.02585   0.61137   0.84448   Biso      1.000     O          -0.5763659999999999           
         O12       1.0000    0.94470   0.25219   0.82219   Biso      1.000     O          -0.5756859999999999           
         O13       1.0000    0.70121   0.03196   0.87864   Biso      1.000     O          -0.532463           
         O14       1.0000    0.77025   0.07413   0.09764   Biso      1.000     O          -0.5684   
         O15       1.0000    0.10359   0.74079   0.76430   Biso      1.000     O          -0.5685819999999999           
         O16       1.0000    0.03455   0.69862   0.54530   Biso      1.000     O          -0.531173           
         O17       1.0000    0.63471   0.00259   0.21197   Biso      1.000     O          -0.531501           
         O18       1.0000    0.27804   0.91885   0.48885   Biso      1.000     O          -0.576202           
         O19       1.0000    0.69613   0.77025   0.90236   Biso      1.000     O          -0.5682020000000001           
         O20       1.0000    0.69252   0.94470   0.17781   Biso      1.000     O          -0.575588           
         O21       1.0000    0.41448   0.02585   0.15552   Biso      1.000     O          -0.576439           
         O22       1.0000    0.56308   0.59254   0.56903   Biso      1.000     O          -0.567883           
         O23       1.0000    0.69862   0.66408   0.45470   Biso      1.000     O          -0.531231           
         O24       1.0000    0.63212   0.63471   0.78803   Biso      1.000     O          -0.531482           
         O25       1.0000    0.38863   0.41448   0.84448   Biso      1.000     O          -0.5764229999999999           
         O26       1.0000    0.30748   0.05530   0.82219   Biso      1.000     O          -0.575587           
         O27       1.0000    0.33074   0.29879   0.87864   Biso      1.000     O          -0.5325300000000001           
         O28       1.0000    0.30387   0.22975   0.09764   Biso      1.000     O          -0.5682020000000001           
         O29       1.0000    0.22975   0.92587   0.90236   Biso      1.000     O          -0.5684   
         O30       1.0000    0.29879   0.96804   0.12136   Biso      1.000     O          -0.532463           
         O31       1.0000    0.05530   0.74781   0.17781   Biso      1.000     O          -0.575684           
         O32       1.0000    0.64082   0.72196   0.48885   Biso      1.000     O          -0.5762619999999999           
         O33       1.0000    0.66408   0.96545   0.54530   Biso      1.000     O          -0.5311060000000001           
         O34       1.0000    0.63721   0.89641   0.76430   Biso      1.000     O          -0.5684640000000001           
         O35       1.0000    0.89641   0.25921   0.23570   Biso      1.000     O          -0.5685819999999999           
         O36       1.0000    0.96545   0.30138   0.45470   Biso      1.000     O          -0.531173           
         O37       1.0000    0.72196   0.08115   0.51115   Biso      1.000     O          -0.5762010000000001           
         O38       1.0000    0.97415   0.38863   0.15552   Biso      1.000     O          -0.576365           
         O39       1.0000    0.99741   0.63212   0.21197   Biso      1.000     O          -0.531461           
         O40       1.0000    0.97054   0.56308   0.43097   Biso      1.000     O          -0.567863           
         O41       1.0000    0.40746   0.97054   0.56903   Biso      1.000     O          -0.567868           
         O42       1.0000    0.36529   0.99741   0.78803   Biso      1.000     O          -0.531501           
         O43       1.0000    0.58552   0.97415   0.84448   Biso      1.000     O          -0.576438           
         O44       1.0000    0.74781   0.69252   0.82219   Biso      1.000     O          -0.5757180000000001           
         O45       1.0000    0.96804   0.66926   0.87864   Biso      1.000     O          -0.532483           
         O46       1.0000    0.92587   0.69613   0.09764   Biso      1.000     O          -0.568357           
         O47       1.0000    0.07413   0.30387   0.90236   Biso      1.000     O          -0.568357           
         O48       1.0000    0.03196   0.33074   0.12136   Biso      1.000     O          -0.532482           
         O49       1.0000    0.25219   0.30748   0.17781   Biso      1.000     O          -0.575719           
         O50       1.0000    0.30138   0.33592   0.54530   Biso      1.000     O          -0.531231           
         O51       1.0000    0.25921   0.36279   0.76430   Biso      1.000     O          -0.56852  
         O52       1.0000    0.74079   0.63721   0.23570   Biso      1.000     O          -0.56852  
         O53       1.0000    0.91885   0.64082   0.51115   Biso      1.000     O          -0.576221           
         O54       1.0000    0.08115   0.35918   0.48885   Biso      1.000     O          -0.5762189999999999 