
##########################################################################
#               Crystallographic Information Format file
#               Produced by PyCifRW module
#
#  This is a CIF file.  CIF has been adopted by the International
#  Union of Crystallography as the standard for data archiving and
#  transmission.
#
#  For information on this file format, follow the CIF links at
#  http://www.iucr.org
##########################################################################

data_image0

_cell_length_a                          28.6841
_cell_length_b                          9.2655
_cell_length_c                          9.3005
_cell_angle_alpha                       90
_cell_angle_beta                        116.369
_cell_angle_gamma                       90
_symmetry_space_group_name_H-M          'P 1'
_symmetry_int_tables_number             1
loop_
  _symmetry_equiv_pos_as_xyz
         'x, y, z' 
loop_
  _atom_site_label
  _atom_site_occupancy
  _atom_site_fract_x
  _atom_site_fract_y
  _atom_site_fract_z
  _atom_site_thermal_displace_type
  _atom_site_B_iso_or_equiv
  _atom_site_type_symbol
  _atom_site_charge
         C1        1.0000    0.50000   0.18410   0.75000   Biso      1.000     C          -0.159215           
         C2        1.0000    0.63710   0.01870   0.28830   Biso      1.000     C          0.104397  
         C3        1.0000    0.52929   0.91000   0.39526   Biso      1.000     C          -0.27384400000000003          
         C4        1.0000    0.39930   0.06610   0.69000   Biso      1.000     C          -0.184961           
         C5        1.0000    0.43076   0.00130   0.63010   Biso      1.000     C          0.194735  
         C6        1.0000    0.42540   0.85500   0.59310   Biso      1.000     C          -0.204906           
         C7        1.0000    0.38790   0.78000   0.61920   Biso      1.000     C          0.07486699999999999           
         C8        1.0000    0.30670   0.51150   0.41870   Biso      1.000     C          0.139521  
         C9        1.0000    0.35090   0.41310   0.51520   Biso      1.000     C          0.541135  
         C10       1.0000    0.97071   0.59000   0.60474   Biso      1.000     C          -0.273839           
         C11       1.0000    0.86290   0.48130   0.71170   Biso      1.000     C          0.104404  
         C12       1.0000    0.89930   0.56610   0.69000   Biso      1.000     C          -0.18495799999999998          
         C13       1.0000    0.93076   0.50130   0.63010   Biso      1.000     C          0.194697  
         C14       1.0000    0.92540   0.35500   0.59310   Biso      1.000     C          -0.204967           
         C15       1.0000    0.88790   0.28000   0.61920   Biso      1.000     C          0.074813  
         C16       1.0000    0.80670   0.01150   0.41870   Biso      1.000     C          0.140431  
         C17       1.0000    0.85090   0.91310   0.51520   Biso      1.000     C          0.541114  
         C18       1.0000    0.85090   0.08690   0.01520   Biso      1.000     C          0.541117  
         C19       1.0000    0.38790   0.22000   0.11920   Biso      1.000     C          0.074861  
         C20       1.0000    0.42540   0.14500   0.09310   Biso      1.000     C          -0.204902           
         C21       1.0000    0.43076   0.99870   0.13010   Biso      1.000     C          0.194736  
         C22       1.0000    0.39930   0.93390   0.19000   Biso      1.000     C          -0.18495699999999998          
         C23       1.0000    0.36290   0.01870   0.21170   Biso      1.000     C          0.104401  
         C24       1.0000    0.47071   0.91000   0.10474   Biso      1.000     C          -0.273855           
         C25       1.0000    0.60070   0.93390   0.31000   Biso      1.000     C          -0.184962           
         C26       1.0000    0.00000   0.68410   0.75000   Biso      1.000     C          -0.159217           
         C27       1.0000    0.86290   0.51870   0.21170   Biso      1.000     C          0.104404  
         C28       1.0000    0.89930   0.43390   0.19000   Biso      1.000     C          -0.18495699999999998          
         C29       1.0000    0.93076   0.49870   0.13010   Biso      1.000     C          0.194698  
         C30       1.0000    0.92540   0.64500   0.09310   Biso      1.000     C          -0.204963           
         C31       1.0000    0.88790   0.72000   0.11920   Biso      1.000     C          0.074813  
         C32       1.0000    0.80670   0.98850   0.91870   Biso      1.000     C          0.140432  
         C33       1.0000    0.97071   0.41000   0.10474   Biso      1.000     C          -0.273839           
         C34       1.0000    0.30670   0.48850   0.91870   Biso      1.000     C          0.139524  
         C35       1.0000    0.56924   0.99870   0.36990   Biso      1.000     C          0.194704  
         C36       1.0000    0.61210   0.22000   0.38080   Biso      1.000     C          0.074809  
         C37       1.0000    0.13710   0.51870   0.28830   Biso      1.000     C          0.10441500000000001           
         C38       1.0000    0.10070   0.43390   0.31000   Biso      1.000     C          -0.18495999999999999          
         C39       1.0000    0.06924   0.49870   0.36990   Biso      1.000     C          0.19473800000000002           
         C40       1.0000    0.07460   0.64500   0.40690   Biso      1.000     C          -0.20490100000000003          
         C41       1.0000    0.11210   0.72000   0.38080   Biso      1.000     C          0.07486699999999999           
         C42       1.0000    0.19330   0.98850   0.58130   Biso      1.000     C          0.139529  
         C43       1.0000    0.02929   0.41000   0.39526   Biso      1.000     C          -0.273857           
         C44       1.0000    0.14910   0.08690   0.48480   Biso      1.000     C          0.5411729999999999  
         C45       1.0000    0.56924   0.00130   0.86990   Biso      1.000     C          0.194712  
         C46       1.0000    0.60070   0.06610   0.81000   Biso      1.000     C          -0.184953           
         C47       1.0000    0.63710   0.98130   0.78830   Biso      1.000     C          0.104405  
         C48       1.0000    0.52929   0.09000   0.89526   Biso      1.000     C          -0.27384400000000003          
         C49       1.0000    0.00000   0.31590   0.25000   Biso      1.000     C          -0.15922  
         C50       1.0000    0.50000   0.81590   0.25000   Biso      1.000     C          -0.159218           
         C51       1.0000    0.57460   0.85500   0.90690   Biso      1.000     C          -0.204958           
         C52       1.0000    0.57460   0.14500   0.40690   Biso      1.000     C          -0.20496199999999998          
         C53       1.0000    0.61210   0.78000   0.88080   Biso      1.000     C          0.074817  
         C54       1.0000    0.64910   0.41310   0.98480   Biso      1.000     C          0.541114  
         C55       1.0000    0.69330   0.48850   0.58130   Biso      1.000     C          0.140432  
         C56       1.0000    0.64910   0.58690   0.48480   Biso      1.000     C          0.541132  
         C57       1.0000    0.36290   0.98130   0.71170   Biso      1.000     C          0.104401  
         C58       1.0000    0.47071   0.09000   0.60474   Biso      1.000     C          -0.273858           
         C59       1.0000    0.14910   0.91310   0.98480   Biso      1.000     C          0.54115   
         C60       1.0000    0.69330   0.51150   0.08130   Biso      1.000     C          0.14041700000000001           
         C61       1.0000    0.11210   0.28000   0.88080   Biso      1.000     C          0.074875  
         C62       1.0000    0.19330   0.01150   0.08130   Biso      1.000     C          0.139519  
         C63       1.0000    0.06924   0.50130   0.86990   Biso      1.000     C          0.194749  
         C64       1.0000    0.10070   0.56610   0.81000   Biso      1.000     C          -0.184946           
         C65       1.0000    0.13710   0.48130   0.78830   Biso      1.000     C          0.10441700000000001           
         C66       1.0000    0.02929   0.59000   0.89526   Biso      1.000     C          -0.273858           
         C67       1.0000    0.07460   0.35500   0.90690   Biso      1.000     C          -0.20489899999999997          
         C68       1.0000    0.35090   0.58690   0.01520   Biso      1.000     C          0.541141  
         Cu1       1.0000    0.31200   0.67080   0.68600   Biso      1.000     Cu          0.642601  
         Cu2       1.0000    0.81200   0.17080   0.68600   Biso      1.000     Cu          0.645717  
         Cu3       1.0000    0.18800   0.17080   0.81400   Biso      1.000     Cu          0.642646  
         Cu4       1.0000    0.68800   0.67080   0.81400   Biso      1.000     Cu          0.645674  
         Cu5       1.0000    0.18800   0.82920   0.31400   Biso      1.000     Cu          0.6426149999999999  
         Cu6       1.0000    0.81200   0.82920   0.18600   Biso      1.000     Cu          0.645678  
         Cu7       1.0000    0.68800   0.32920   0.31400   Biso      1.000     Cu          0.645648  
         Cu8       1.0000    0.31200   0.32920   0.18600   Biso      1.000     Cu          0.642591  
         H1        1.0000    0.88383   0.17886   0.59418   Biso      1.000     H          0.085228  
         H2        1.0000    0.49469   0.02675   0.58962   Biso      1.000     H          0.104111  
         H3        1.0000    0.45353   0.14969   0.51150   Biso      1.000     H          0.136917  
         H4        1.0000    0.34122   0.02595   0.75315   Biso      1.000     H          0.096356  
         H5        1.0000    0.94663   0.30789   0.55149   Biso      1.000     H          0.144035  
         H6        1.0000    0.90260   0.66708   0.71578   Biso      1.000     H          0.136518  
         H7        1.0000    0.84122   0.52595   0.75315   Biso      1.000     H          0.096273  
         H8        1.0000    0.95353   0.64969   0.51150   Biso      1.000     H          0.136931  
         H9        1.0000    0.99469   0.52675   0.58962   Biso      1.000     H          0.10409500000000001           
         H10       1.0000    0.97583   0.74400   0.76830   Biso      1.000     H          0.11322   
         H11       1.0000    0.52417   0.75600   0.23170   Biso      1.000     H          0.11321700000000001           
         H12       1.0000    0.40260   0.16708   0.71578   Biso      1.000     H          0.13661700000000002           
         H13       1.0000    0.44663   0.80789   0.55149   Biso      1.000     H          0.144082  
         H14       1.0000    0.15878   0.47405   0.24685   Biso      1.000     H          0.096367  
         H15       1.0000    0.02417   0.74400   0.73170   Biso      1.000     H          0.11320999999999999           
         H16       1.0000    0.00531   0.52675   0.91038   Biso      1.000     H          0.104118  
         H17       1.0000    0.04647   0.64969   0.98850   Biso      1.000     H          0.13692000000000001           
         H18       1.0000    0.15878   0.52595   0.74685   Biso      1.000     H          0.09638   
         H19       1.0000    0.50531   0.97325   0.41038   Biso      1.000     H          0.1041    
         H20       1.0000    0.54647   0.85031   0.48850   Biso      1.000     H          0.136932  
         H21       1.0000    0.65878   0.97405   0.24685   Biso      1.000     H          0.09626599999999999           
         H22       1.0000    0.59740   0.83292   0.28422   Biso      1.000     H          0.136518  
         H23       1.0000    0.55337   0.19211   0.44851   Biso      1.000     H          0.144038  
         H24       1.0000    0.61617   0.32114   0.40582   Biso      1.000     H          0.085229  
         H25       1.0000    0.09740   0.66708   0.78422   Biso      1.000     H          0.136627  
         H26       1.0000    0.47583   0.24400   0.76830   Biso      1.000     H          0.11321099999999999           
         H27       1.0000    0.09740   0.33292   0.28422   Biso      1.000     H          0.13661700000000002           
         H28       1.0000    0.05337   0.69211   0.44851   Biso      1.000     H          0.144086  
         H29       1.0000    0.11617   0.82114   0.40582   Biso      1.000     H          0.08530599999999999           
         H30       1.0000    0.52417   0.24400   0.73170   Biso      1.000     H          0.11321400000000001           
         H31       1.0000    0.50531   0.02675   0.91038   Biso      1.000     H          0.104101  
         H32       1.0000    0.54647   0.14969   0.98850   Biso      1.000     H          0.136931  
         H33       1.0000    0.65878   0.02595   0.74685   Biso      1.000     H          0.096274  
         H34       1.0000    0.59740   0.16708   0.78422   Biso      1.000     H          0.136522  
         H35       1.0000    0.97583   0.25600   0.26830   Biso      1.000     H          0.113221  
         H36       1.0000    0.99469   0.47325   0.08962   Biso      1.000     H          0.104094  
         H37       1.0000    0.95353   0.35031   0.01150   Biso      1.000     H          0.136931  
         H38       1.0000    0.84122   0.47405   0.25315   Biso      1.000     H          0.096272  
         H39       1.0000    0.90260   0.33292   0.21578   Biso      1.000     H          0.136518  
         H40       1.0000    0.38383   0.32114   0.09418   Biso      1.000     H          0.085303  
         H41       1.0000    0.44663   0.19211   0.05149   Biso      1.000     H          0.144082  
         H42       1.0000    0.40260   0.83292   0.21578   Biso      1.000     H          0.13661800000000002           
         H43       1.0000    0.34122   0.97405   0.25315   Biso      1.000     H          0.096354  
         H44       1.0000    0.45353   0.85031   0.01150   Biso      1.000     H          0.136918  
         H45       1.0000    0.49469   0.97325   0.08962   Biso      1.000     H          0.10411   
         H46       1.0000    0.47583   0.75600   0.26830   Biso      1.000     H          0.11321300000000001           
         H47       1.0000    0.94663   0.69211   0.05149   Biso      1.000     H          0.14403   
         H48       1.0000    0.88383   0.82114   0.09418   Biso      1.000     H          0.085228  
         H49       1.0000    0.55337   0.80789   0.94851   Biso      1.000     H          0.144049  
         H50       1.0000    0.61617   0.67886   0.90582   Biso      1.000     H          0.085234  
         H51       1.0000    0.02417   0.25600   0.23170   Biso      1.000     H          0.11321300000000001           
         H52       1.0000    0.00531   0.47325   0.41038   Biso      1.000     H          0.10411600000000001           
         H53       1.0000    0.04647   0.35031   0.48850   Biso      1.000     H          0.13692000000000001           
         H54       1.0000    0.11617   0.17886   0.90582   Biso      1.000     H          0.085316  
         H55       1.0000    0.05337   0.30789   0.94851   Biso      1.000     H          0.14410499999999998           
         H56       1.0000    0.38383   0.67886   0.59418   Biso      1.000     H          0.085303  
         N1        1.0000    0.24290   0.40960   0.70680   Biso      1.000     N          -0.048366           
         N2        1.0000    0.75710   0.59040   0.29320   Biso      1.000     N          -0.047623           
         N3        1.0000    0.72040   0.51250   0.73720   Biso      1.000     N          -0.220072           
         N4        1.0000    0.75130   0.67350   0.17060   Biso      1.000     N          -0.060542           
         N5        1.0000    0.71170   0.62550   0.03790   Biso      1.000     N          -0.20882699999999998          
         N6        1.0000    0.64320   0.83930   0.82290   Biso      1.000     N          -0.20665300000000003          
         N7        1.0000    0.14320   0.66070   0.32290   Biso      1.000     N          -0.205668           
         N8        1.0000    0.21170   0.87450   0.53790   Biso      1.000     N          -0.207058           
         N9        1.0000    0.25130   0.82650   0.67060   Biso      1.000     N          -0.061415           
         N10       1.0000    0.25710   0.90960   0.79320   Biso      1.000     N          -0.048279           
         N11       1.0000    0.22040   0.01250   0.73720   Biso      1.000     N          -0.21828699999999998          
         N12       1.0000    0.72040   0.48750   0.23720   Biso      1.000     N          -0.22004400000000002          
         N13       1.0000    0.75710   0.40960   0.79320   Biso      1.000     N          -0.047596           
         N14       1.0000    0.71170   0.37450   0.53790   Biso      1.000     N          -0.20885  
         N15       1.0000    0.21170   0.12550   0.03790   Biso      1.000     N          -0.207064           
         N16       1.0000    0.78830   0.12550   0.46210   Biso      1.000     N          -0.20887199999999997          
         N17       1.0000    0.85680   0.33930   0.67710   Biso      1.000     N          -0.20666199999999998          
         N18       1.0000    0.85680   0.66070   0.17710   Biso      1.000     N          -0.206652           
         N19       1.0000    0.78830   0.87450   0.96210   Biso      1.000     N          -0.20886  
         N20       1.0000    0.74870   0.82650   0.82940   Biso      1.000     N          -0.060546           
         N21       1.0000    0.74290   0.90960   0.70680   Biso      1.000     N          -0.047579           
         N22       1.0000    0.77960   0.01250   0.76280   Biso      1.000     N          -0.220073           
         N23       1.0000    0.77960   0.98750   0.26280   Biso      1.000     N          -0.220085           
         N24       1.0000    0.14320   0.33930   0.82290   Biso      1.000     N          -0.20566700000000002          
         N25       1.0000    0.35680   0.16070   0.17710   Biso      1.000     N          -0.20567600000000003          
         N26       1.0000    0.74870   0.17350   0.32940   Biso      1.000     N          -0.06054299999999999          
         N27       1.0000    0.24290   0.59040   0.20680   Biso      1.000     N          -0.04838  
         N28       1.0000    0.27960   0.48750   0.26280   Biso      1.000     N          -0.218283           
         N29       1.0000    0.28830   0.62550   0.46210   Biso      1.000     N          -0.20706799999999997          
         N30       1.0000    0.25130   0.17350   0.17060   Biso      1.000     N          -0.061424           
         N31       1.0000    0.25710   0.09040   0.29320   Biso      1.000     N          -0.048289           
         N32       1.0000    0.22040   0.98750   0.23720   Biso      1.000     N          -0.21829  
         N33       1.0000    0.24870   0.32650   0.82940   Biso      1.000     N          -0.061453999999999995         
         N34       1.0000    0.24870   0.67350   0.32940   Biso      1.000     N          -0.06141799999999999          
         N35       1.0000    0.75130   0.32650   0.67060   Biso      1.000     N          -0.06051599999999999          
         N36       1.0000    0.28830   0.37450   0.96210   Biso      1.000     N          -0.207029           
         N37       1.0000    0.64320   0.16070   0.32290   Biso      1.000     N          -0.20664899999999997          
         N38       1.0000    0.35680   0.83930   0.67710   Biso      1.000     N          -0.20568000000000003          
         N39       1.0000    0.27960   0.51250   0.76280   Biso      1.000     N          -0.218286           
         N40       1.0000    0.74290   0.09040   0.20680   Biso      1.000     N          -0.047561           
         O1        1.0000    0.86210   0.82200   0.43320   Biso      1.000     O          -0.499601           
         O2        1.0000    0.37160   0.57030   0.16160   Biso      1.000     O          -0.531419           
         O3        1.0000    0.36210   0.67800   0.93320   Biso      1.000     O          -0.49841599999999997          
         O4        1.0000    0.13790   0.17800   0.56680   Biso      1.000     O          -0.4984   
         O5        1.0000    0.12840   0.07030   0.33840   Biso      1.000     O          -0.531396           
         O6        1.0000    0.87160   0.07030   0.16160   Biso      1.000     O          -0.5307970000000001           
         O7        1.0000    0.37160   0.42970   0.66160   Biso      1.000     O          -0.531413           
         O8        1.0000    0.36210   0.32200   0.43320   Biso      1.000     O          -0.498399           
         O9        1.0000    0.63790   0.32200   0.06680   Biso      1.000     O          -0.49959499999999996          
         O10       1.0000    0.62840   0.42970   0.83840   Biso      1.000     O          -0.530792           
         O11       1.0000    0.12840   0.92970   0.83840   Biso      1.000     O          -0.531423           
         O12       1.0000    0.13790   0.82200   0.06680   Biso      1.000     O          -0.498408           
         O13       1.0000    0.62840   0.57030   0.33840   Biso      1.000     O          -0.530774           
         O14       1.0000    0.63790   0.67800   0.56680   Biso      1.000     O          -0.49958800000000003          
         O15       1.0000    0.86210   0.17800   0.93320   Biso      1.000     O          -0.499622           
         O16       1.0000    0.87160   0.92970   0.66160   Biso      1.000     O          -0.530794 