
##########################################################################
#               Crystallographic Information Format file
#               Produced by PyCifRW module
#
#  This is a CIF file.  CIF has been adopted by the International
#  Union of Crystallography as the standard for data archiving and
#  transmission.
#
#  For information on this file format, follow the CIF links at
#  http://www.iucr.org
##########################################################################

data_image0

_cell_length_a                          25.7522
_cell_length_b                          25.7522
_cell_length_c                          6.7576
_cell_angle_alpha                       90
_cell_angle_beta                        90
_cell_angle_gamma                       120
_symmetry_space_group_name_H-M          'P 1'
_symmetry_int_tables_number             1
loop_
  _symmetry_equiv_pos_as_xyz
         'x, y, z' 
loop_
  _atom_site_label
  _atom_site_occupancy
  _atom_site_fract_x
  _atom_site_fract_y
  _atom_site_fract_z
  _atom_site_thermal_displace_type
  _atom_site_B_iso_or_equiv
  _atom_site_type_symbol
  _atom_site_charge
         C1        1.0000    0.25981   0.34462   0.58709   Biso      1.000     C          0.633014  
         C2        1.0000    0.87077   0.21337   0.54861   Biso      1.000     C          -0.145829           
         C3        1.0000    0.77366   0.11810   0.58635   Biso      1.000     C          0.272373  
         C4        1.0000    0.81528   0.16997   0.47253   Biso      1.000     C          -0.172926           
         C5        1.0000    0.83663   0.68802   0.86081   Biso      1.000     C          -0.172218           
         C6        1.0000    0.78476   0.67777   0.74699   Biso      1.000     C          0.272199  
         C7        1.0000    0.88003   0.67593   0.78473   Biso      1.000     C          -0.145085           
         C8        1.0000    0.92647   0.67796   0.92043   Biso      1.000     C          0.633422  
         C9        1.0000    0.40686   0.98871   0.74624   Biso      1.000     C          0.633742  
         C10       1.0000    0.45330   0.99074   0.88194   Biso      1.000     C          -0.145595           
         C11       1.0000    0.54857   0.98890   0.91968   Biso      1.000     C          0.27266   
         C12       1.0000    0.49670   0.97865   0.80586   Biso      1.000     C          -0.172997           
         C13       1.0000    0.16997   0.35468   0.52747   Biso      1.000     C          -0.17311  
         C14       1.0000    0.11810   0.34443   0.41365   Biso      1.000     C          0.272427  
         C15       1.0000    0.21337   0.34259   0.45139   Biso      1.000     C          -0.145457           
         C16       1.0000    0.31198   0.14862   0.86081   Biso      1.000     C          -0.172315           
         C17       1.0000    0.91518   0.25981   0.41291   Biso      1.000     C          0.633165  
         C18       1.0000    0.98871   0.58185   0.25376   Biso      1.000     C          0.633724  
         C19       1.0000    0.99074   0.53744   0.11806   Biso      1.000     C          -0.145588           
         C20       1.0000    0.98890   0.44033   0.08032   Biso      1.000     C          0.27262   
         C21       1.0000    0.32223   0.10700   0.74699   Biso      1.000     C          0.272301  
         C22       1.0000    0.32407   0.20411   0.78473   Biso      1.000     C          -0.144994           
         C23       1.0000    0.32204   0.24852   0.92043   Biso      1.000     C          0.633206  
         C24       1.0000    0.58185   0.59314   0.74624   Biso      1.000     C          0.633722  
         C25       1.0000    0.53744   0.54670   0.88194   Biso      1.000     C          -0.145597           
         C26       1.0000    0.44033   0.45143   0.91968   Biso      1.000     C          0.27264   
         C27       1.0000    0.48195   0.50330   0.80586   Biso      1.000     C          -0.172996           
         C28       1.0000    0.07353   0.32204   0.07957   Biso      1.000     C          0.633422  
         C29       1.0000    0.64532   0.81528   0.52747   Biso      1.000     C          -0.173177           
         C30       1.0000    0.65741   0.87077   0.45139   Biso      1.000     C          -0.145372           
         C31       1.0000    0.65538   0.91518   0.58709   Biso      1.000     C          0.632793  
         C32       1.0000    0.24852   0.92647   0.07957   Biso      1.000     C          0.633323  
         C33       1.0000    0.20411   0.88003   0.21527   Biso      1.000     C          -0.145122           
         C34       1.0000    0.10700   0.78476   0.25301   Biso      1.000     C          0.272485  
         C35       1.0000    0.14862   0.83663   0.13919   Biso      1.000     C          -0.172315           
         C36       1.0000    0.97865   0.48195   0.19414   Biso      1.000     C          -0.172996           
         C37       1.0000    0.65557   0.77366   0.41365   Biso      1.000     C          0.272239  
         C38       1.0000    0.11997   0.32407   0.21527   Biso      1.000     C          -0.145085           
         C39       1.0000    0.35468   0.18472   0.47253   Biso      1.000     C          -0.173177           
         C40       1.0000    0.16337   0.31198   0.13919   Biso      1.000     C          -0.172218           
         C41       1.0000    0.18472   0.83003   0.52747   Biso      1.000     C          -0.172926           
         C42       1.0000    0.22634   0.88190   0.41365   Biso      1.000     C          0.272373  
         C43       1.0000    0.12923   0.78663   0.45139   Biso      1.000     C          -0.145829           
         C44       1.0000    0.08482   0.74019   0.58709   Biso      1.000     C          0.633165  
         C45       1.0000    0.67796   0.75148   0.07957   Biso      1.000     C          0.633206  
         C46       1.0000    0.67593   0.79589   0.21527   Biso      1.000     C          -0.144994           
         C47       1.0000    0.67777   0.89300   0.25301   Biso      1.000     C          0.272301  
         C48       1.0000    0.68802   0.85138   0.13919   Biso      1.000     C          -0.172315           
         C49       1.0000    0.51805   0.49670   0.19414   Biso      1.000     C          -0.172996           
         C50       1.0000    0.55967   0.54857   0.08032   Biso      1.000     C          0.27264   
         C51       1.0000    0.46256   0.45330   0.11806   Biso      1.000     C          -0.145597           
         C52       1.0000    0.41815   0.40686   0.25376   Biso      1.000     C          0.633722  
         C53       1.0000    0.34462   0.08482   0.41291   Biso      1.000     C          0.632793  
         C54       1.0000    0.34259   0.12923   0.54861   Biso      1.000     C          -0.145372           
         C55       1.0000    0.34443   0.22634   0.58635   Biso      1.000     C          0.272239  
         C56       1.0000    0.21524   0.32223   0.25301   Biso      1.000     C          0.272199  
         C57       1.0000    0.01110   0.55967   0.91968   Biso      1.000     C          0.27262   
         C58       1.0000    0.02135   0.51805   0.80586   Biso      1.000     C          -0.172996           
         C59       1.0000    0.01129   0.41815   0.74624   Biso      1.000     C          0.633724  
         C60       1.0000    0.50330   0.02135   0.19414   Biso      1.000     C          -0.172998           
         C61       1.0000    0.45143   0.01110   0.08032   Biso      1.000     C          0.27266   
         C62       1.0000    0.54670   0.00926   0.11806   Biso      1.000     C          -0.145595           
         C63       1.0000    0.59314   0.01129   0.25376   Biso      1.000     C          0.633742  
         C64       1.0000    0.74019   0.65538   0.41291   Biso      1.000     C          0.633014  
         C65       1.0000    0.00926   0.46256   0.88194   Biso      1.000     C          -0.145588           
         C66       1.0000    0.88190   0.65557   0.58635   Biso      1.000     C          0.272427  
         C67       1.0000    0.83003   0.64532   0.47253   Biso      1.000     C          -0.17311  
         C68       1.0000    0.78663   0.65741   0.54861   Biso      1.000     C          -0.145457           
         C69       1.0000    0.85138   0.16337   0.86081   Biso      1.000     C          -0.172316           
         C70       1.0000    0.89300   0.21524   0.74699   Biso      1.000     C          0.272485  
         C71       1.0000    0.79589   0.11997   0.78473   Biso      1.000     C          -0.145122           
         C72       1.0000    0.75148   0.07353   0.92043   Biso      1.000     C          0.633323  
         H1        1.0000    0.70360   0.86217   0.00726   Biso      1.000     H          0.148686  
         H2        1.0000    0.47116   0.50809   0.67393   Biso      1.000     H          0.149202  
         H3        1.0000    0.80449   0.17476   0.34060   Biso      1.000     H          0.149294  
         H4        1.0000    0.13783   0.84142   0.00726   Biso      1.000     H          0.148723  
         H5        1.0000    0.49191   0.96307   0.67393   Biso      1.000     H          0.149202  
         H6        1.0000    0.03693   0.52884   0.67393   Biso      1.000     H          0.149206  
         H7        1.0000    0.15858   0.29640   0.00726   Biso      1.000     H          0.148645  
         H8        1.0000    0.82524   0.62974   0.34060   Biso      1.000     H          0.149332  
         H9        1.0000    0.29640   0.13783   0.99274   Biso      1.000     H          0.148686  
         H10       1.0000    0.37026   0.19551   0.34060   Biso      1.000     H          0.149331  
         H11       1.0000    0.19551   0.82524   0.65940   Biso      1.000     H          0.149294  
         H12       1.0000    0.96307   0.47116   0.32607   Biso      1.000     H          0.149206  
         H13       1.0000    0.50809   0.03693   0.32607   Biso      1.000     H          0.149202  
         H14       1.0000    0.84142   0.70360   0.99274   Biso      1.000     H          0.148645  
         H15       1.0000    0.86217   0.15858   0.99274   Biso      1.000     H          0.148723  
         H16       1.0000    0.62974   0.80449   0.65940   Biso      1.000     H          0.149331  
         H17       1.0000    0.52884   0.49191   0.32607   Biso      1.000     H          0.149202  
         H18       1.0000    0.17476   0.37026   0.65940   Biso      1.000     H          0.149332  
         Ni1       1.0000    0.64771   0.02872   0.64680   Biso      1.000     Ni          0.913657  
         Ni2       1.0000    0.95232   0.31438   0.01987   Biso      1.000     Ni          0.913219  
         Ni3       1.0000    0.68562   0.63795   0.01987   Biso      1.000     Ni          0.913325  
         Ni4       1.0000    0.31438   0.36205   0.98013   Biso      1.000     Ni          0.913325  
         Ni5       1.0000    0.97128   0.61899   0.64680   Biso      1.000     Ni          0.913615  
         Ni6       1.0000    0.38101   0.35229   0.64680   Biso      1.000     Ni          0.9136    
         Ni7       1.0000    0.35229   0.97128   0.35320   Biso      1.000     Ni          0.913657  
         Ni8       1.0000    0.01896   0.30461   0.68653   Biso      1.000     Ni          0.913189  
         Ni9       1.0000    0.98104   0.69539   0.31347   Biso      1.000     Ni          0.913189  
         Ni10      1.0000    0.02872   0.38101   0.35320   Biso      1.000     Ni          0.913616  
         Ni11      1.0000    0.63795   0.95232   0.98013   Biso      1.000     Ni          0.913186  
         Ni12      1.0000    0.61899   0.64771   0.35320   Biso      1.000     Ni          0.913601  
         Ni13      1.0000    0.28566   0.98104   0.68653   Biso      1.000     Ni          0.91318   
         Ni14      1.0000    0.71434   0.01896   0.31347   Biso      1.000     Ni          0.91318   
         Ni15      1.0000    0.69539   0.71434   0.68653   Biso      1.000     Ni          0.913269  
         Ni16      1.0000    0.36205   0.04768   0.01987   Biso      1.000     Ni          0.913186  
         Ni17      1.0000    0.04768   0.68562   0.98013   Biso      1.000     Ni          0.913219  
         Ni18      1.0000    0.30461   0.28566   0.31347   Biso      1.000     Ni          0.913269  
         O1        1.0000    0.43861   0.40624   0.43423   Biso      1.000     O          -0.557921           
         O2        1.0000    0.36897   0.36544   0.21657   Biso      1.000     O          -0.541237           
         O3        1.0000    0.61444   0.58281   0.15798   Biso      1.000     O          -0.551587           
         O4        1.0000    0.59376   0.03237   0.43423   Biso      1.000     O          -0.557929           
         O5        1.0000    0.36496   0.28111   0.50869   Biso      1.000     O          -0.551349           
         O6        1.0000    0.33686   0.03564   0.45010   Biso      1.000     O          -0.540502           
         O7        1.0000    0.03237   0.43861   0.56577   Biso      1.000     O          -0.557923           
         O8        1.0000    0.36570   0.10528   0.23244   Biso      1.000     O          -0.557326           
         O9        1.0000    0.67020   0.70230   0.11676   Biso      1.000     O          -0.541126           
         O10       1.0000    0.00353   0.36897   0.78343   Biso      1.000     O          -0.541226           
         O11       1.0000    0.03163   0.61444   0.84202   Biso      1.000     O          -0.551495           
         O12       1.0000    0.94777   0.24948   0.82465   Biso      1.000     O          -0.551305           
         O13       1.0000    0.70230   0.03211   0.88324   Biso      1.000     O          -0.541225           
         O14       1.0000    0.77194   0.07291   0.10090   Biso      1.000     O          -0.557305           
         O15       1.0000    0.10528   0.73957   0.76756   Biso      1.000     O          -0.5575   
         O16       1.0000    0.03564   0.69877   0.54990   Biso      1.000     O          -0.540594           
         O17       1.0000    0.63456   0.00353   0.21657   Biso      1.000     O          -0.54125  
         O18       1.0000    0.28111   0.91614   0.49131   Biso      1.000     O          -0.551562           
         O19       1.0000    0.69904   0.77194   0.89910   Biso      1.000     O          -0.557458           
         O20       1.0000    0.69830   0.94777   0.17535   Biso      1.000     O          -0.551251           
         O21       1.0000    0.41719   0.03163   0.15798   Biso      1.000     O          -0.551612           
         O22       1.0000    0.56139   0.59376   0.56577   Biso      1.000     O          -0.557921           
         O23       1.0000    0.69877   0.66314   0.45010   Biso      1.000     O          -0.540646           
         O24       1.0000    0.63103   0.63456   0.78343   Biso      1.000     O          -0.541237           
         O25       1.0000    0.38556   0.41719   0.84202   Biso      1.000     O          -0.551587           
         O26       1.0000    0.30170   0.05223   0.82465   Biso      1.000     O          -0.551251           
         O27       1.0000    0.32980   0.29770   0.88324   Biso      1.000     O          -0.541126           
         O28       1.0000    0.30096   0.22806   0.10090   Biso      1.000     O          -0.557458           
         O29       1.0000    0.22806   0.92709   0.89910   Biso      1.000     O          -0.557305           
         O30       1.0000    0.29770   0.96789   0.11676   Biso      1.000     O          -0.541225           
         O31       1.0000    0.05223   0.75052   0.17535   Biso      1.000     O          -0.551305           
         O32       1.0000    0.63504   0.71889   0.49131   Biso      1.000     O          -0.551349           
         O33       1.0000    0.66314   0.96436   0.54990   Biso      1.000     O          -0.540502           
         O34       1.0000    0.63430   0.89472   0.76756   Biso      1.000     O          -0.557326           
         O35       1.0000    0.89472   0.26043   0.23244   Biso      1.000     O          -0.5575   
         O36       1.0000    0.96436   0.30123   0.45010   Biso      1.000     O          -0.540594           
         O37       1.0000    0.71889   0.08386   0.50869   Biso      1.000     O          -0.551562           
         O38       1.0000    0.96837   0.38556   0.15798   Biso      1.000     O          -0.551495           
         O39       1.0000    0.99647   0.63103   0.21657   Biso      1.000     O          -0.541226           
         O40       1.0000    0.96763   0.56139   0.43423   Biso      1.000     O          -0.557922           
         O41       1.0000    0.40624   0.96763   0.56577   Biso      1.000     O          -0.557929           
         O42       1.0000    0.36544   0.99647   0.78343   Biso      1.000     O          -0.54125  
         O43       1.0000    0.58281   0.96837   0.84202   Biso      1.000     O          -0.551612           
         O44       1.0000    0.75052   0.69830   0.82465   Biso      1.000     O          -0.551125           
         O45       1.0000    0.96789   0.67020   0.88324   Biso      1.000     O          -0.541362           
         O46       1.0000    0.92709   0.69904   0.10090   Biso      1.000     O          -0.557304           
         O47       1.0000    0.07291   0.30096   0.89910   Biso      1.000     O          -0.557304           
         O48       1.0000    0.03211   0.32980   0.11676   Biso      1.000     O          -0.541362           
         O49       1.0000    0.24948   0.30170   0.17535   Biso      1.000     O          -0.551125           
         O50       1.0000    0.30123   0.33686   0.54990   Biso      1.000     O          -0.540646           
         O51       1.0000    0.26043   0.36570   0.76756   Biso      1.000     O          -0.557527           
         O52       1.0000    0.73957   0.63430   0.23244   Biso      1.000     O          -0.557527           
         O53       1.0000    0.91614   0.63504   0.50869   Biso      1.000     O          -0.551582           
         O54       1.0000    0.08386   0.36496   0.49131   Biso      1.000     O          -0.551582 