
##########################################################################
#               Crystallographic Information Format file
#               Produced by PyCifRW module
#
#  This is a CIF file.  CIF has been adopted by the International
#  Union of Crystallography as the standard for data archiving and
#  transmission.
#
#  For information on this file format, follow the CIF links at
#  http://www.iucr.org
##########################################################################

data_image0

_cell_length_a                          28.6315
_cell_length_b                          9.2743
_cell_length_c                          9.2833
_cell_angle_alpha                       90
_cell_angle_beta                        116.615
_cell_angle_gamma                       90
_symmetry_space_group_name_H-M          'P 1'
_symmetry_int_tables_number             1
loop_
  _symmetry_equiv_pos_as_xyz
         'x, y, z' 
loop_
  _atom_site_label
  _atom_site_occupancy
  _atom_site_fract_x
  _atom_site_fract_y
  _atom_site_fract_z
  _atom_site_thermal_displace_type
  _atom_site_B_iso_or_equiv
  _atom_site_type_symbol
  _atom_site_charge
         C1        1.0000    0.50000   0.18640   0.75000   Biso      1.000     C          -0.154384           
         C2        1.0000    0.63660   0.01930   0.28540   Biso      1.000     C          0.102163  
         C3        1.0000    0.52973   0.90770   0.39570   Biso      1.000     C          -0.275351           
         C4        1.0000    0.39930   0.06650   0.69140   Biso      1.000     C          -0.18562599999999999          
         C5        1.0000    0.43083   0.00260   0.63110   Biso      1.000     C          0.195477  
         C6        1.0000    0.42600   0.85620   0.59530   Biso      1.000     C          -0.204913           
         C7        1.0000    0.38900   0.78020   0.62280   Biso      1.000     C          0.076856  
         C8        1.0000    0.30720   0.51360   0.42330   Biso      1.000     C          0.138651  
         C9        1.0000    0.35180   0.41560   0.51950   Biso      1.000     C          0.545514  
         C10       1.0000    0.97027   0.59230   0.60430   Biso      1.000     C          -0.275404           
         C11       1.0000    0.86340   0.48070   0.71460   Biso      1.000     C          0.102604  
         C12       1.0000    0.89930   0.56650   0.69140   Biso      1.000     C          -0.185616           
         C13       1.0000    0.93083   0.50260   0.63110   Biso      1.000     C          0.195552  
         C14       1.0000    0.92600   0.35620   0.59530   Biso      1.000     C          -0.204839           
         C15       1.0000    0.88900   0.28020   0.62280   Biso      1.000     C          0.076862  
         C16       1.0000    0.80720   0.01360   0.42330   Biso      1.000     C          0.137534  
         C17       1.0000    0.85180   0.91560   0.51950   Biso      1.000     C          0.545661  
         C18       1.0000    0.85180   0.08440   0.01950   Biso      1.000     C          0.5455949999999999  
         C19       1.0000    0.38900   0.21980   0.12280   Biso      1.000     C          0.07685   
         C20       1.0000    0.42600   0.14380   0.09530   Biso      1.000     C          -0.204909           
         C21       1.0000    0.43083   0.99740   0.13110   Biso      1.000     C          0.195483  
         C22       1.0000    0.39930   0.93350   0.19140   Biso      1.000     C          -0.18563  
         C23       1.0000    0.36340   0.01930   0.21460   Biso      1.000     C          0.10233099999999999           
         C24       1.0000    0.47027   0.90770   0.10430   Biso      1.000     C          -0.275398           
         C25       1.0000    0.60070   0.93350   0.30860   Biso      1.000     C          -0.18565  
         C26       1.0000    0.00000   0.68640   0.75000   Biso      1.000     C          -0.154394           
         C27       1.0000    0.86340   0.51930   0.21460   Biso      1.000     C          0.102673  
         C28       1.0000    0.89930   0.43350   0.19140   Biso      1.000     C          -0.185731           
         C29       1.0000    0.93083   0.49740   0.13110   Biso      1.000     C          0.195467  
         C30       1.0000    0.92600   0.64380   0.09530   Biso      1.000     C          -0.204922           
         C31       1.0000    0.88900   0.71980   0.12280   Biso      1.000     C          0.076825  
         C32       1.0000    0.80720   0.98640   0.92330   Biso      1.000     C          0.137323  
         C33       1.0000    0.97027   0.40770   0.10430   Biso      1.000     C          -0.275418           
         C34       1.0000    0.30720   0.48640   0.92330   Biso      1.000     C          0.13864100000000001           
         C35       1.0000    0.56917   0.99740   0.36890   Biso      1.000     C          0.195339  
         C36       1.0000    0.61100   0.21980   0.37720   Biso      1.000     C          0.076968  
         C37       1.0000    0.13660   0.51930   0.28540   Biso      1.000     C          0.10248299999999999           
         C38       1.0000    0.10070   0.43350   0.30860   Biso      1.000     C          -0.185645           
         C39       1.0000    0.06917   0.49740   0.36890   Biso      1.000     C          0.195357  
         C40       1.0000    0.07400   0.64380   0.40470   Biso      1.000     C          -0.20506799999999997          
         C41       1.0000    0.11100   0.71980   0.37720   Biso      1.000     C          0.07688500000000001           
         C42       1.0000    0.19280   0.98640   0.57670   Biso      1.000     C          0.138571  
         C43       1.0000    0.02973   0.40770   0.39570   Biso      1.000     C          -0.27534699999999995          
         C44       1.0000    0.14820   0.08440   0.48050   Biso      1.000     C          0.545582  
         C45       1.0000    0.56917   0.00260   0.86890   Biso      1.000     C          0.195399  
         C46       1.0000    0.60070   0.06650   0.80860   Biso      1.000     C          -0.185547           
         C47       1.0000    0.63660   0.98070   0.78540   Biso      1.000     C          0.102159  
         C48       1.0000    0.52973   0.09230   0.89570   Biso      1.000     C          -0.275346           
         C49       1.0000    0.00000   0.31360   0.25000   Biso      1.000     C          -0.154396           
         C50       1.0000    0.50000   0.81360   0.25000   Biso      1.000     C          -0.154382           
         C51       1.0000    0.57400   0.85620   0.90470   Biso      1.000     C          -0.20501599999999998          
         C52       1.0000    0.57400   0.14380   0.40470   Biso      1.000     C          -0.205096           
         C53       1.0000    0.61100   0.78020   0.87720   Biso      1.000     C          0.076961  
         C54       1.0000    0.64820   0.41560   0.98050   Biso      1.000     C          0.545424  
         C55       1.0000    0.69280   0.48640   0.57670   Biso      1.000     C          0.138716  
         C56       1.0000    0.64820   0.58440   0.48050   Biso      1.000     C          0.545457  
         C57       1.0000    0.36340   0.98070   0.71460   Biso      1.000     C          0.102342  
         C58       1.0000    0.47027   0.09230   0.60430   Biso      1.000     C          -0.275397           
         C59       1.0000    0.14820   0.91560   0.98050   Biso      1.000     C          0.5455800000000001  
         C60       1.0000    0.69280   0.51360   0.07670   Biso      1.000     C          0.138775  
         C61       1.0000    0.11100   0.28020   0.87720   Biso      1.000     C          0.076892  
         C62       1.0000    0.19280   0.01360   0.07670   Biso      1.000     C          0.138571  
         C63       1.0000    0.06917   0.50260   0.86890   Biso      1.000     C          0.19534200000000002           
         C64       1.0000    0.10070   0.56650   0.80860   Biso      1.000     C          -0.185645           
         C65       1.0000    0.13660   0.48070   0.78540   Biso      1.000     C          0.102495  
         C66       1.0000    0.02973   0.59230   0.89570   Biso      1.000     C          -0.275346           
         C67       1.0000    0.07400   0.35620   0.90470   Biso      1.000     C          -0.205077           
         C68       1.0000    0.35180   0.58440   0.01950   Biso      1.000     C          0.545523  
         Cu1       1.0000    0.31236   0.67310   0.68970   Biso      1.000     Cu          0.647158  
         Cu2       1.0000    0.81236   0.17310   0.68970   Biso      1.000     Cu          0.644147  
         Cu3       1.0000    0.18764   0.17310   0.81030   Biso      1.000     Cu          0.647135  
         Cu4       1.0000    0.68764   0.67310   0.81030   Biso      1.000     Cu          0.644578  
         Cu5       1.0000    0.18764   0.82690   0.31030   Biso      1.000     Cu          0.647125  
         Cu6       1.0000    0.81236   0.82690   0.18970   Biso      1.000     Cu          0.6461979999999999  
         Cu7       1.0000    0.68764   0.32690   0.31030   Biso      1.000     Cu          0.645092  
         Cu8       1.0000    0.31236   0.32690   0.18970   Biso      1.000     Cu          0.6471399999999999  
         H1        1.0000    0.88529   0.17895   0.59859   Biso      1.000     H          0.08582000000000001           
         H2        1.0000    0.49424   0.02989   0.58805   Biso      1.000     H          0.104308  
         H3        1.0000    0.45249   0.15204   0.51094   Biso      1.000     H          0.136678  
         H4        1.0000    0.34165   0.02470   0.75627   Biso      1.000     H          0.095759  
         H5        1.0000    0.94734   0.30970   0.55351   Biso      1.000     H          0.14431   
         H6        1.0000    0.90222   0.66750   0.71647   Biso      1.000     H          0.13804   
         H7        1.0000    0.84165   0.52470   0.75627   Biso      1.000     H          0.096009  
         H8        1.0000    0.95249   0.65204   0.51094   Biso      1.000     H          0.13667200000000002           
         H9        1.0000    0.99424   0.52989   0.58805   Biso      1.000     H          0.104333  
         H10       1.0000    0.97589   0.74620   0.76880   Biso      1.000     H          0.11208199999999999           
         H11       1.0000    0.52411   0.75380   0.23120   Biso      1.000     H          0.11218199999999999           
         H12       1.0000    0.40222   0.16750   0.71647   Biso      1.000     H          0.137931  
         H13       1.0000    0.44734   0.80970   0.55351   Biso      1.000     H          0.144256  
         H14       1.0000    0.15835   0.47530   0.24373   Biso      1.000     H          0.095818  
         H15       1.0000    0.02411   0.74620   0.73120   Biso      1.000     H          0.11218499999999999           
         H16       1.0000    0.00576   0.52989   0.91195   Biso      1.000     H          0.104224  
         H17       1.0000    0.04751   0.65204   0.98906   Biso      1.000     H          0.136706  
         H18       1.0000    0.15835   0.52470   0.74373   Biso      1.000     H          0.095819  
         H19       1.0000    0.50576   0.97011   0.41195   Biso      1.000     H          0.104223  
         H20       1.0000    0.54751   0.84796   0.48906   Biso      1.000     H          0.1367    
         H21       1.0000    0.65835   0.97530   0.24373   Biso      1.000     H          0.09572699999999999           
         H22       1.0000    0.59778   0.83250   0.28353   Biso      1.000     H          0.137927  
         H23       1.0000    0.55266   0.19030   0.44649   Biso      1.000     H          0.144189  
         H24       1.0000    0.61471   0.32105   0.40141   Biso      1.000     H          0.085812  
         H25       1.0000    0.09778   0.66750   0.78353   Biso      1.000     H          0.137923  
         H26       1.0000    0.47589   0.24620   0.76880   Biso      1.000     H          0.112096  
         H27       1.0000    0.09778   0.33250   0.28353   Biso      1.000     H          0.137923  
         H28       1.0000    0.05266   0.69030   0.44649   Biso      1.000     H          0.14416099999999998           
         H29       1.0000    0.11471   0.82105   0.40141   Biso      1.000     H          0.085738  
         H30       1.0000    0.52411   0.24620   0.73120   Biso      1.000     H          0.11218199999999999           
         H31       1.0000    0.50576   0.02989   0.91195   Biso      1.000     H          0.10423800000000001           
         H32       1.0000    0.54751   0.15204   0.98906   Biso      1.000     H          0.13674   
         H33       1.0000    0.65835   0.02470   0.74373   Biso      1.000     H          0.09576599999999999           
         H34       1.0000    0.59778   0.16750   0.78353   Biso      1.000     H          0.137971  
         H35       1.0000    0.97589   0.25380   0.26880   Biso      1.000     H          0.112071  
         H36       1.0000    0.99424   0.47011   0.08805   Biso      1.000     H          0.10431700000000001           
         H37       1.0000    0.95249   0.34796   0.01094   Biso      1.000     H          0.13661500000000001           
         H38       1.0000    0.84165   0.47530   0.25627   Biso      1.000     H          0.095877  
         H39       1.0000    0.90222   0.33250   0.21647   Biso      1.000     H          0.137954  
         H40       1.0000    0.38529   0.32105   0.09859   Biso      1.000     H          0.085736  
         H41       1.0000    0.44734   0.19030   0.05351   Biso      1.000     H          0.144251  
         H42       1.0000    0.40222   0.83250   0.21647   Biso      1.000     H          0.13793   
         H43       1.0000    0.34165   0.97530   0.25627   Biso      1.000     H          0.09575499999999999           
         H44       1.0000    0.45249   0.84796   0.01094   Biso      1.000     H          0.13667   
         H45       1.0000    0.49424   0.97011   0.08805   Biso      1.000     H          0.10430899999999999           
         H46       1.0000    0.47589   0.75380   0.26880   Biso      1.000     H          0.11208699999999999           
         H47       1.0000    0.94734   0.69030   0.05351   Biso      1.000     H          0.144243  
         H48       1.0000    0.88529   0.82105   0.09859   Biso      1.000     H          0.085662  
         H49       1.0000    0.55266   0.80970   0.94649   Biso      1.000     H          0.144232  
         H50       1.0000    0.61471   0.67895   0.90141   Biso      1.000     H          0.085868  
         H51       1.0000    0.02411   0.25380   0.23120   Biso      1.000     H          0.112173  
         H52       1.0000    0.00576   0.47011   0.41195   Biso      1.000     H          0.104225  
         H53       1.0000    0.04751   0.34796   0.48906   Biso      1.000     H          0.136693  
         H54       1.0000    0.11471   0.17895   0.90141   Biso      1.000     H          0.085737  
         H55       1.0000    0.05266   0.30970   0.94649   Biso      1.000     H          0.14416400000000001           
         H56       1.0000    0.38529   0.67895   0.59859   Biso      1.000     H          0.085737  
         N1        1.0000    0.24230   0.40820   0.71160   Biso      1.000     N          -0.049710000000000004         
         N2        1.0000    0.75770   0.59180   0.28840   Biso      1.000     N          -0.050518           
         N3        1.0000    0.72080   0.51100   0.73290   Biso      1.000     N          -0.221887           
         N4        1.0000    0.75120   0.67530   0.16520   Biso      1.000     N          -0.062446           
         N5        1.0000    0.71090   0.62780   0.03260   Biso      1.000     N          -0.20590999999999998          
         N6        1.0000    0.64220   0.83860   0.81890   Biso      1.000     N          -0.20481100000000002          
         N7        1.0000    0.14220   0.66140   0.31890   Biso      1.000     N          -0.205483           
         N8        1.0000    0.21090   0.87220   0.53260   Biso      1.000     N          -0.205604           
         N9        1.0000    0.25120   0.82470   0.66520   Biso      1.000     N          -0.061958000000000006         
         N10       1.0000    0.25770   0.90820   0.78840   Biso      1.000     N          -0.049476           
         N11       1.0000    0.22080   0.01100   0.73290   Biso      1.000     N          -0.222227           
         N12       1.0000    0.72080   0.48900   0.23290   Biso      1.000     N          -0.22182399999999997          
         N13       1.0000    0.75770   0.40820   0.78840   Biso      1.000     N          -0.05053  
         N14       1.0000    0.71090   0.37220   0.53260   Biso      1.000     N          -0.205823           
         N15       1.0000    0.21090   0.12780   0.03260   Biso      1.000     N          -0.20560900000000001          
         N16       1.0000    0.78910   0.12780   0.46740   Biso      1.000     N          -0.20372  
         N17       1.0000    0.85780   0.33860   0.68110   Biso      1.000     N          -0.204105           
         N18       1.0000    0.85780   0.66140   0.18110   Biso      1.000     N          -0.205292           
         N19       1.0000    0.78910   0.87220   0.96740   Biso      1.000     N          -0.203347           
         N20       1.0000    0.74880   0.82470   0.83480   Biso      1.000     N          -0.062089           
         N21       1.0000    0.74230   0.90820   0.71160   Biso      1.000     N          -0.049476           
         N22       1.0000    0.77920   0.01100   0.76710   Biso      1.000     N          -0.219712           
         N23       1.0000    0.77920   0.98900   0.26710   Biso      1.000     N          -0.221073           
         N24       1.0000    0.14220   0.33860   0.81890   Biso      1.000     N          -0.20548400000000003          
         N25       1.0000    0.35780   0.16140   0.18110   Biso      1.000     N          -0.20558099999999999          
         N26       1.0000    0.74880   0.17530   0.33480   Biso      1.000     N          -0.06200700000000001          
         N27       1.0000    0.24230   0.59180   0.21160   Biso      1.000     N          -0.049713           
         N28       1.0000    0.27920   0.48900   0.26710   Biso      1.000     N          -0.22228699999999998          
         N29       1.0000    0.28910   0.62780   0.46740   Biso      1.000     N          -0.20557899999999998          
         N30       1.0000    0.25120   0.17530   0.16520   Biso      1.000     N          -0.061949000000000004         
         N31       1.0000    0.25770   0.09180   0.28840   Biso      1.000     N          -0.049484           
         N32       1.0000    0.22080   0.98900   0.23290   Biso      1.000     N          -0.22222600000000003          
         N33       1.0000    0.24880   0.32470   0.83480   Biso      1.000     N          -0.062068           
         N34       1.0000    0.24880   0.67530   0.33480   Biso      1.000     N          -0.062028           
         N35       1.0000    0.75120   0.32470   0.66520   Biso      1.000     N          -0.062845           
         N36       1.0000    0.28910   0.37220   0.96740   Biso      1.000     N          -0.205535           
         N37       1.0000    0.64220   0.16140   0.31890   Biso      1.000     N          -0.20533099999999999          
         N38       1.0000    0.35780   0.83860   0.68110   Biso      1.000     N          -0.205578           
         N39       1.0000    0.27920   0.51100   0.76710   Biso      1.000     N          -0.222288           
         N40       1.0000    0.74230   0.09180   0.21160   Biso      1.000     N          -0.049545           
         O1        1.0000    0.86280   0.82400   0.43790   Biso      1.000     O          -0.5006109999999999           
         O2        1.0000    0.37290   0.56640   0.16600   Biso      1.000     O          -0.5322560000000001           
         O3        1.0000    0.36280   0.67600   0.93790   Biso      1.000     O          -0.502115           
         O4        1.0000    0.13720   0.17600   0.56210   Biso      1.000     O          -0.502316           
         O5        1.0000    0.12710   0.06640   0.33400   Biso      1.000     O          -0.532502           
         O6        1.0000    0.87290   0.06640   0.16600   Biso      1.000     O          -0.532238           
         O7        1.0000    0.37290   0.43360   0.66600   Biso      1.000     O          -0.5322680000000001           
         O8        1.0000    0.36280   0.32400   0.43790   Biso      1.000     O          -0.5021180000000001           
         O9        1.0000    0.63720   0.32400   0.06210   Biso      1.000     O          -0.5026520000000001           
         O10       1.0000    0.62710   0.43360   0.83400   Biso      1.000     O          -0.5324840000000001           
         O11       1.0000    0.12710   0.93360   0.83400   Biso      1.000     O          -0.532518           
         O12       1.0000    0.13720   0.82400   0.06210   Biso      1.000     O          -0.502325           
         O13       1.0000    0.62710   0.56640   0.33400   Biso      1.000     O          -0.5325   
         O14       1.0000    0.63720   0.67600   0.56210   Biso      1.000     O          -0.502649           
         O15       1.0000    0.86280   0.17600   0.93790   Biso      1.000     O          -0.500315           
         O16       1.0000    0.87290   0.93360   0.66600   Biso      1.000     O          -0.532688 