
##########################################################################
#               Crystallographic Information Format file
#               Produced by PyCifRW module
#
#  This is a CIF file.  CIF has been adopted by the International
#  Union of Crystallography as the standard for data archiving and
#  transmission.
#
#  For information on this file format, follow the CIF links at
#  http://www.iucr.org
##########################################################################

data_image0

_cell_length_a                          28.7444
_cell_length_b                          9.2672
_cell_length_c                          9.3295
_cell_angle_alpha                       90
_cell_angle_beta                        116.097
_cell_angle_gamma                       90
_symmetry_space_group_name_H-M          'P 1'
_symmetry_int_tables_number             1
loop_
  _symmetry_equiv_pos_as_xyz
         'x, y, z' 
loop_
  _atom_site_label
  _atom_site_occupancy
  _atom_site_fract_x
  _atom_site_fract_y
  _atom_site_fract_z
  _atom_site_thermal_displace_type
  _atom_site_B_iso_or_equiv
  _atom_site_type_symbol
  _atom_site_charge
         C1        1.0000    0.50000   0.18630   0.75000   Biso      1.000     C          -0.15509900000000001          
         C2        1.0000    0.63760   0.01860   0.29760   Biso      1.000     C          0.10390999999999999           
         C3        1.0000    0.52817   0.90780   0.39506   Biso      1.000     C          -0.27260999999999996          
         C4        1.0000    0.39900   0.06700   0.68320   Biso      1.000     C          -0.186448           
         C5        1.0000    0.43157   0.00270   0.62750   Biso      1.000     C          0.195206  
         C6        1.0000    0.42700   0.85610   0.59200   Biso      1.000     C          -0.20672600000000002          
         C7        1.0000    0.38920   0.78040   0.61530   Biso      1.000     C          0.07722799999999999           
         C8        1.0000    0.30700   0.51130   0.41600   Biso      1.000     C          0.138464  
         C9        1.0000    0.35070   0.41140   0.50940   Biso      1.000     C          0.541994  
         C10       1.0000    0.97183   0.59220   0.60494   Biso      1.000     C          -0.27274  
         C11       1.0000    0.86240   0.48140   0.70240   Biso      1.000     C          0.10413199999999999           
         C12       1.0000    0.89900   0.56700   0.68320   Biso      1.000     C          -0.186475           
         C13       1.0000    0.93157   0.50270   0.62750   Biso      1.000     C          0.19513599999999998           
         C14       1.0000    0.92700   0.35610   0.59200   Biso      1.000     C          -0.20684299999999997          
         C15       1.0000    0.88920   0.28040   0.61530   Biso      1.000     C          0.077226  
         C16       1.0000    0.80700   0.01130   0.41600   Biso      1.000     C          0.138509  
         C17       1.0000    0.85070   0.91140   0.50940   Biso      1.000     C          0.542044  
         C18       1.0000    0.85070   0.08860   0.00940   Biso      1.000     C          0.5420689999999999  
         C19       1.0000    0.38920   0.21960   0.11530   Biso      1.000     C          0.07724199999999999           
         C20       1.0000    0.42700   0.14390   0.09200   Biso      1.000     C          -0.20665300000000003          
         C21       1.0000    0.43157   0.99730   0.12750   Biso      1.000     C          0.195287  
         C22       1.0000    0.39900   0.93300   0.18320   Biso      1.000     C          -0.186353           
         C23       1.0000    0.36240   0.01860   0.20240   Biso      1.000     C          0.104109  
         C24       1.0000    0.47183   0.90780   0.10494   Biso      1.000     C          -0.272764           
         C25       1.0000    0.60100   0.93300   0.31680   Biso      1.000     C          -0.186301           
         C26       1.0000    0.00000   0.68630   0.75000   Biso      1.000     C          -0.155117           
         C27       1.0000    0.86240   0.51860   0.20240   Biso      1.000     C          0.10408900000000001           
         C28       1.0000    0.89900   0.43300   0.18320   Biso      1.000     C          -0.186339           
         C29       1.0000    0.93157   0.49730   0.12750   Biso      1.000     C          0.195223  
         C30       1.0000    0.92700   0.64390   0.09200   Biso      1.000     C          -0.206763           
         C31       1.0000    0.88920   0.71960   0.11530   Biso      1.000     C          0.07728099999999999           
         C32       1.0000    0.80700   0.98870   0.91600   Biso      1.000     C          0.138664  
         C33       1.0000    0.97183   0.40780   0.10494   Biso      1.000     C          -0.272728           
         C34       1.0000    0.30700   0.48870   0.91600   Biso      1.000     C          0.138627  
         C35       1.0000    0.56843   0.99730   0.37250   Biso      1.000     C          0.195     
         C36       1.0000    0.61080   0.21960   0.38470   Biso      1.000     C          0.077415  
         C37       1.0000    0.13760   0.51860   0.29760   Biso      1.000     C          0.103806  
         C38       1.0000    0.10100   0.43300   0.31680   Biso      1.000     C          -0.18629300000000001          
         C39       1.0000    0.06843   0.49730   0.37250   Biso      1.000     C          0.195079  
         C40       1.0000    0.07300   0.64390   0.40800   Biso      1.000     C          -0.206958           
         C41       1.0000    0.11080   0.71960   0.38470   Biso      1.000     C          0.07737100000000001           
         C42       1.0000    0.19300   0.98870   0.58400   Biso      1.000     C          0.13977   
         C43       1.0000    0.02817   0.40780   0.39506   Biso      1.000     C          -0.27270900000000003          
         C44       1.0000    0.14930   0.08860   0.49060   Biso      1.000     C          0.541894  
         C45       1.0000    0.56843   0.00270   0.87250   Biso      1.000     C          0.194953  
         C46       1.0000    0.60100   0.06700   0.81680   Biso      1.000     C          -0.186392           
         C47       1.0000    0.63760   0.98140   0.79760   Biso      1.000     C          0.10390799999999999           
         C48       1.0000    0.52817   0.09220   0.89506   Biso      1.000     C          -0.27261399999999997          
         C49       1.0000    0.00000   0.31370   0.25000   Biso      1.000     C          -0.15512  
         C50       1.0000    0.50000   0.81370   0.25000   Biso      1.000     C          -0.155093           
         C51       1.0000    0.57300   0.85610   0.90800   Biso      1.000     C          -0.20709299999999997          
         C52       1.0000    0.57300   0.14390   0.40800   Biso      1.000     C          -0.20703000000000002          
         C53       1.0000    0.61080   0.78040   0.88470   Biso      1.000     C          0.077407  
         C54       1.0000    0.64930   0.41140   0.99060   Biso      1.000     C          0.54197   
         C55       1.0000    0.69300   0.48870   0.58400   Biso      1.000     C          0.139736  
         C56       1.0000    0.64930   0.58860   0.49060   Biso      1.000     C          0.541938  
         C57       1.0000    0.36240   0.98140   0.70240   Biso      1.000     C          0.104144  
         C58       1.0000    0.47183   0.09220   0.60494   Biso      1.000     C          -0.272748           
         C59       1.0000    0.14930   0.91140   0.99060   Biso      1.000     C          0.5418890000000001  
         C60       1.0000    0.69300   0.51130   0.08400   Biso      1.000     C          0.139688  
         C61       1.0000    0.11080   0.28040   0.88470   Biso      1.000     C          0.07738400000000001           
         C62       1.0000    0.19300   0.01130   0.08400   Biso      1.000     C          0.139728  
         C63       1.0000    0.06843   0.50270   0.87250   Biso      1.000     C          0.195051  
         C64       1.0000    0.10100   0.56700   0.81680   Biso      1.000     C          -0.18637  
         C65       1.0000    0.13760   0.48140   0.79760   Biso      1.000     C          0.103825  
         C66       1.0000    0.02817   0.59220   0.89506   Biso      1.000     C          -0.27271100000000004          
         C67       1.0000    0.07300   0.35610   0.90800   Biso      1.000     C          -0.207002           
         C68       1.0000    0.35070   0.58860   0.00940   Biso      1.000     C          0.542064  
         Cu1       1.0000    0.31218   0.66930   0.68630   Biso      1.000     Cu          0.646247  
         Cu2       1.0000    0.81218   0.16930   0.68630   Biso      1.000     Cu          0.6461210000000001  
         Cu3       1.0000    0.18782   0.16930   0.81370   Biso      1.000     Cu          0.645729  
         Cu4       1.0000    0.68782   0.66930   0.81370   Biso      1.000     Cu          0.645625  
         Cu5       1.0000    0.18782   0.83070   0.31370   Biso      1.000     Cu          0.645112  
         Cu6       1.0000    0.81218   0.83070   0.18630   Biso      1.000     Cu          0.644658  
         Cu7       1.0000    0.68782   0.33070   0.31370   Biso      1.000     Cu          0.645145  
         Cu8       1.0000    0.31218   0.33070   0.18630   Biso      1.000     Cu          0.644672  
         H1        1.0000    0.88572   0.17907   0.59128   Biso      1.000     H          0.08516900000000001           
         H2        1.0000    0.49618   0.02944   0.59134   Biso      1.000     H          0.103896  
         H3        1.0000    0.45516   0.15190   0.51206   Biso      1.000     H          0.135914  
         H4        1.0000    0.33988   0.02572   0.74106   Biso      1.000     H          0.09703400000000001           
         H5        1.0000    0.94905   0.30936   0.55315   Biso      1.000     H          0.143819  
         H6        1.0000    0.90169   0.66809   0.70795   Biso      1.000     H          0.13705599999999998           
         H7        1.0000    0.83988   0.52572   0.74106   Biso      1.000     H          0.09703400000000001           
         H8        1.0000    0.95516   0.65190   0.51206   Biso      1.000     H          0.13585999999999998           
         H9        1.0000    0.99618   0.52944   0.59134   Biso      1.000     H          0.103978  
         H10       1.0000    0.97546   0.74610   0.76620   Biso      1.000     H          0.11123599999999999           
         H11       1.0000    0.52454   0.75390   0.23380   Biso      1.000     H          0.111383  
         H12       1.0000    0.40169   0.16809   0.70795   Biso      1.000     H          0.137051  
         H13       1.0000    0.44905   0.80936   0.55315   Biso      1.000     H          0.143728  
         H14       1.0000    0.16012   0.47428   0.25894   Biso      1.000     H          0.097001  
         H15       1.0000    0.02454   0.74610   0.73380   Biso      1.000     H          0.11143   
         H16       1.0000    0.00382   0.52944   0.90866   Biso      1.000     H          0.103778  
         H17       1.0000    0.04484   0.65190   0.98794   Biso      1.000     H          0.135991  
         H18       1.0000    0.16012   0.52572   0.75894   Biso      1.000     H          0.096972  
         H19       1.0000    0.50382   0.97056   0.40866   Biso      1.000     H          0.10383699999999998           
         H20       1.0000    0.54484   0.84810   0.48794   Biso      1.000     H          0.135969  
         H21       1.0000    0.66012   0.97428   0.25894   Biso      1.000     H          0.09698   
         H22       1.0000    0.59831   0.83191   0.29205   Biso      1.000     H          0.137037  
         H23       1.0000    0.55095   0.19064   0.44685   Biso      1.000     H          0.143742  
         H24       1.0000    0.61428   0.32093   0.40872   Biso      1.000     H          0.08533099999999999           
         H25       1.0000    0.09831   0.66809   0.79205   Biso      1.000     H          0.13699   
         H26       1.0000    0.47546   0.24610   0.76620   Biso      1.000     H          0.111273  
         H27       1.0000    0.09831   0.33191   0.29205   Biso      1.000     H          0.137025  
         H28       1.0000    0.05095   0.69064   0.44685   Biso      1.000     H          0.14365   
         H29       1.0000    0.11428   0.82093   0.40872   Biso      1.000     H          0.085316  
         H30       1.0000    0.52454   0.24610   0.73380   Biso      1.000     H          0.111371  
         H31       1.0000    0.50382   0.02944   0.90866   Biso      1.000     H          0.103826  
         H32       1.0000    0.54484   0.15190   0.98794   Biso      1.000     H          0.13592   
         H33       1.0000    0.66012   0.02572   0.75894   Biso      1.000     H          0.096929  
         H34       1.0000    0.59831   0.16809   0.79205   Biso      1.000     H          0.136992  
         H35       1.0000    0.97546   0.25390   0.26620   Biso      1.000     H          0.11124300000000001           
         H36       1.0000    0.99618   0.47056   0.09134   Biso      1.000     H          0.103995  
         H37       1.0000    0.95516   0.34810   0.01206   Biso      1.000     H          0.135919  
         H38       1.0000    0.83988   0.47428   0.24106   Biso      1.000     H          0.097164  
         H39       1.0000    0.90169   0.33191   0.20795   Biso      1.000     H          0.137107  
         H40       1.0000    0.38572   0.32093   0.09128   Biso      1.000     H          0.08526   
         H41       1.0000    0.44905   0.19064   0.05315   Biso      1.000     H          0.143765  
         H42       1.0000    0.40169   0.83191   0.20795   Biso      1.000     H          0.13708499999999998           
         H43       1.0000    0.33988   0.97428   0.24106   Biso      1.000     H          0.0971    
         H44       1.0000    0.45516   0.84810   0.01206   Biso      1.000     H          0.135967  
         H45       1.0000    0.49618   0.97056   0.09134   Biso      1.000     H          0.10391199999999999           
         H46       1.0000    0.47546   0.75390   0.26620   Biso      1.000     H          0.111286  
         H47       1.0000    0.94905   0.69064   0.05315   Biso      1.000     H          0.143895  
         H48       1.0000    0.88572   0.82093   0.09128   Biso      1.000     H          0.08529199999999999           
         H49       1.0000    0.55095   0.80936   0.94685   Biso      1.000     H          0.143699  
         H50       1.0000    0.61428   0.67907   0.90872   Biso      1.000     H          0.08526900000000001           
         H51       1.0000    0.02454   0.25390   0.23380   Biso      1.000     H          0.111448  
         H52       1.0000    0.00382   0.47056   0.40866   Biso      1.000     H          0.10379400000000001           
         H53       1.0000    0.04484   0.34810   0.48794   Biso      1.000     H          0.136043  
         H54       1.0000    0.11428   0.17907   0.90872   Biso      1.000     H          0.085271  
         H55       1.0000    0.05095   0.30936   0.94685   Biso      1.000     H          0.143612  
         H56       1.0000    0.38572   0.67907   0.59128   Biso      1.000     H          0.08516699999999999           
         N1        1.0000    0.24410   0.40530   0.70720   Biso      1.000     N          -0.048155           
         N2        1.0000    0.75590   0.59470   0.29280   Biso      1.000     N          -0.048587           
         N3        1.0000    0.71960   0.50880   0.73980   Biso      1.000     N          -0.218631           
         N4        1.0000    0.75050   0.67420   0.16850   Biso      1.000     N          -0.064762           
         N5        1.0000    0.71140   0.62340   0.03770   Biso      1.000     N          -0.205771           
         N6        1.0000    0.64300   0.83920   0.83080   Biso      1.000     N          -0.210236           
         N7        1.0000    0.14300   0.66080   0.33080   Biso      1.000     N          -0.20968299999999998          
         N8        1.0000    0.21140   0.87660   0.53770   Biso      1.000     N          -0.205921           
         N9        1.0000    0.25050   0.82580   0.66850   Biso      1.000     N          -0.064445           
         N10       1.0000    0.25590   0.90530   0.79280   Biso      1.000     N          -0.048529           
         N11       1.0000    0.21960   0.00880   0.73980   Biso      1.000     N          -0.21864499999999998          
         N12       1.0000    0.71960   0.49120   0.23980   Biso      1.000     N          -0.21852199999999997          
         N13       1.0000    0.75590   0.40530   0.79280   Biso      1.000     N          -0.048569           
         N14       1.0000    0.71140   0.37660   0.53770   Biso      1.000     N          -0.20593699999999998          
         N15       1.0000    0.21140   0.12340   0.03770   Biso      1.000     N          -0.20584000000000002          
         N16       1.0000    0.78860   0.12340   0.46230   Biso      1.000     N          -0.203596           
         N17       1.0000    0.85700   0.33920   0.66920   Biso      1.000     N          -0.21020999999999998          
         N18       1.0000    0.85700   0.66080   0.16920   Biso      1.000     N          -0.20922800000000003          
         N19       1.0000    0.78860   0.87660   0.96230   Biso      1.000     N          -0.203914           
         N20       1.0000    0.74950   0.82580   0.83150   Biso      1.000     N          -0.064416           
         N21       1.0000    0.74410   0.90530   0.70720   Biso      1.000     N          -0.048154           
         N22       1.0000    0.78040   0.00880   0.76020   Biso      1.000     N          -0.217694           
         N23       1.0000    0.78040   0.99120   0.26020   Biso      1.000     N          -0.21661999999999998          
         N24       1.0000    0.14300   0.33920   0.83080   Biso      1.000     N          -0.210216           
         N25       1.0000    0.35700   0.16080   0.16920   Biso      1.000     N          -0.209191           
         N26       1.0000    0.74950   0.17420   0.33150   Biso      1.000     N          -0.064458           
         N27       1.0000    0.24410   0.59470   0.20720   Biso      1.000     N          -0.048109           
         N28       1.0000    0.28040   0.49120   0.26020   Biso      1.000     N          -0.21659  
         N29       1.0000    0.28860   0.62340   0.46230   Biso      1.000     N          -0.203628           
         N30       1.0000    0.25050   0.17420   0.16850   Biso      1.000     N          -0.064796           
         N31       1.0000    0.25590   0.09470   0.29280   Biso      1.000     N          -0.048603           
         N32       1.0000    0.21960   0.99120   0.23980   Biso      1.000     N          -0.21854899999999997          
         N33       1.0000    0.24950   0.32580   0.83150   Biso      1.000     N          -0.064416           
         N34       1.0000    0.24950   0.67420   0.33150   Biso      1.000     N          -0.064398           
         N35       1.0000    0.75050   0.32580   0.66850   Biso      1.000     N          -0.064353           
         N36       1.0000    0.28860   0.37660   0.96230   Biso      1.000     N          -0.203849           
         N37       1.0000    0.64300   0.16080   0.33080   Biso      1.000     N          -0.20974  
         N38       1.0000    0.35700   0.83920   0.66920   Biso      1.000     N          -0.21019000000000002          
         N39       1.0000    0.28040   0.50880   0.76020   Biso      1.000     N          -0.21768400000000002          
         N40       1.0000    0.74410   0.09470   0.20720   Biso      1.000     N          -0.048042           
         O1        1.0000    0.86100   0.82010   0.42580   Biso      1.000     O          -0.497596           
         O2        1.0000    0.37180   0.57300   0.15510   Biso      1.000     O          -0.529778           
         O3        1.0000    0.36100   0.67990   0.92580   Biso      1.000     O          -0.497791           
         O4        1.0000    0.13900   0.17990   0.57420   Biso      1.000     O          -0.49952799999999997          
         O5        1.0000    0.12820   0.07300   0.34490   Biso      1.000     O          -0.529725           
         O6        1.0000    0.87180   0.07300   0.15510   Biso      1.000     O          -0.529812           
         O7        1.0000    0.37180   0.42700   0.65510   Biso      1.000     O          -0.529488           
         O8        1.0000    0.36100   0.32010   0.42580   Biso      1.000     O          -0.497641           
         O9        1.0000    0.63900   0.32010   0.07420   Biso      1.000     O          -0.499539           
         O10       1.0000    0.62820   0.42700   0.84490   Biso      1.000     O          -0.5297930000000001           
         O11       1.0000    0.12820   0.92700   0.84490   Biso      1.000     O          -0.529808           
         O12       1.0000    0.13900   0.82010   0.07420   Biso      1.000     O          -0.49958199999999997          
         O13       1.0000    0.62820   0.57300   0.34490   Biso      1.000     O          -0.529782           
         O14       1.0000    0.63900   0.67990   0.57420   Biso      1.000     O          -0.49952700000000005          
         O15       1.0000    0.86100   0.17990   0.92580   Biso      1.000     O          -0.497755           
         O16       1.0000    0.87180   0.92700   0.65510   Biso      1.000     O          -0.529467 