
##########################################################################
#               Crystallographic Information Format file
#               Produced by PyCifRW module
#
#  This is a CIF file.  CIF has been adopted by the International
#  Union of Crystallography as the standard for data archiving and
#  transmission.
#
#  For information on this file format, follow the CIF links at
#  http://www.iucr.org
##########################################################################

data_image0

_cell_length_a                          22.538
_cell_length_b                          7.044
_cell_length_c                          13.772
_cell_angle_alpha                       90
_cell_angle_beta                        90
_cell_angle_gamma                       90
_symmetry_space_group_name_H-M          'P 1'
_symmetry_int_tables_number             1
loop_
  _symmetry_equiv_pos_as_xyz
         'x, y, z' 
loop_
  _atom_site_label
  _atom_site_occupancy
  _atom_site_fract_x
  _atom_site_fract_y
  _atom_site_fract_z
  _atom_site_thermal_displace_type
  _atom_site_B_iso_or_equiv
  _atom_site_type_symbol
  _atom_site_charge
         C1        1.0000    0.35930   0.25000   0.64160   Biso      1.000     C          0.101259  
         C2        1.0000    0.80350   0.25000   0.80380   Biso      1.000     C          0.015284  
         C3        1.0000    0.11063   0.90460   0.11130   Biso      1.000     C          -0.136104           
         C4        1.0000    0.72360   0.08750   0.72270   Biso      1.000     C          -0.163558           
         C5        1.0000    0.72360   0.91250   0.27730   Biso      1.000     C          -0.163554           
         C6        1.0000    0.61063   0.40460   0.61130   Biso      1.000     C          -0.136088           
         C7        1.0000    0.72360   0.41250   0.72270   Biso      1.000     C          -0.15556  
         C8        1.0000    0.22360   0.41250   0.77730   Biso      1.000     C          -0.163547           
         C9        1.0000    0.88937   0.59540   0.11130   Biso      1.000     C          -0.136104           
         C10       1.0000    0.77640   0.58750   0.22270   Biso      1.000     C          -0.155556           
         C11       1.0000    0.27640   0.58750   0.27730   Biso      1.000     C          -0.163553           
         C12       1.0000    0.77640   0.08750   0.77730   Biso      1.000     C          -0.163527           
         C13       1.0000    0.38937   0.09540   0.61130   Biso      1.000     C          -0.136067           
         C14       1.0000    0.27640   0.08750   0.72270   Biso      1.000     C          -0.155557           
         C15       1.0000    0.27640   0.41250   0.72270   Biso      1.000     C          -0.163556           
         C16       1.0000    0.30350   0.25000   0.69620   Biso      1.000     C          0.015325  
         C17       1.0000    0.22360   0.58750   0.22270   Biso      1.000     C          -0.163549           
         C18       1.0000    0.77640   0.91250   0.22270   Biso      1.000     C          -0.163548           
         C19       1.0000    0.72360   0.58750   0.27730   Biso      1.000     C          -0.155557           
         C20       1.0000    0.61063   0.59540   0.38870   Biso      1.000     C          -0.136087           
         C21       1.0000    0.22360   0.91250   0.22270   Biso      1.000     C          -0.15556  
         C22       1.0000    0.30350   0.75000   0.30380   Biso      1.000     C          0.015304  
         C23       1.0000    0.85930   0.75000   0.14160   Biso      1.000     C          0.10128   
         C24       1.0000    0.88937   0.40460   0.88870   Biso      1.000     C          -0.136105           
         C25       1.0000    0.77640   0.41250   0.77730   Biso      1.000     C          -0.155535           
         C26       1.0000    0.80350   0.75000   0.19620   Biso      1.000     C          0.015322  
         C27       1.0000    0.64070   0.25000   0.64160   Biso      1.000     C          0.101278  
         C28       1.0000    0.69650   0.25000   0.69620   Biso      1.000     C          0.015323  
         C29       1.0000    0.14070   0.75000   0.14160   Biso      1.000     C          0.101284  
         C30       1.0000    0.38937   0.90460   0.38870   Biso      1.000     C          -0.136088           
         C31       1.0000    0.27640   0.91250   0.27730   Biso      1.000     C          -0.155538           
         C32       1.0000    0.85930   0.25000   0.85840   Biso      1.000     C          0.101287  
         C33       1.0000    0.64070   0.75000   0.35840   Biso      1.000     C          0.101278  
         C34       1.0000    0.19650   0.75000   0.19620   Biso      1.000     C          0.015322  
         C35       1.0000    0.22360   0.08750   0.77730   Biso      1.000     C          -0.155558           
         C36       1.0000    0.14070   0.25000   0.85840   Biso      1.000     C          0.101265  
         C37       1.0000    0.35930   0.75000   0.35840   Biso      1.000     C          0.10128   
         C38       1.0000    0.11063   0.09540   0.88870   Biso      1.000     C          -0.136075           
         C39       1.0000    0.69650   0.75000   0.30380   Biso      1.000     C          0.015323  
         C40       1.0000    0.19650   0.25000   0.80380   Biso      1.000     C          0.015323  
         Cu1       1.0000    0.50000   0.50000   0.50000   Biso      1.000     Cu          0.201348  
         Cu2       1.0000    0.00000   0.00000   0.00000   Biso      1.000     Cu          0.20126   
         Cu3       1.0000    0.50000   0.00000   0.50000   Biso      1.000     Cu          0.201363  
         Cu4       1.0000    0.00000   0.50000   0.00000   Biso      1.000     Cu          0.201242  
         H1        1.0000    0.79340   0.03040   0.20400   Biso      1.000     H          0.092821  
         H2        1.0000    0.37830   0.53310   0.62180   Biso      1.000     H          0.283848  
         H3        1.0000    0.29340   0.53040   0.70400   Biso      1.000     H          0.092821  
         H4        1.0000    0.20660   0.53040   0.79600   Biso      1.000     H          0.092822  
         H5        1.0000    0.79340   0.96960   0.79600   Biso      1.000     H          0.092819  
         H6        1.0000    0.37830   0.46690   0.37820   Biso      1.000     H          0.283848  
         H7        1.0000    0.70660   0.03040   0.29600   Biso      1.000     H          0.09282   
         H8        1.0000    0.62170   0.03310   0.37820   Biso      1.000     H          0.283848  
         H9        1.0000    0.29340   0.46960   0.29600   Biso      1.000     H          0.09282   
         H10       1.0000    0.12170   0.53310   0.87820   Biso      1.000     H          0.28385   
         H11       1.0000    0.87830   0.96690   0.87820   Biso      1.000     H          0.28385   
         H12       1.0000    0.87830   0.03310   0.12180   Biso      1.000     H          0.283848  
         H13       1.0000    0.12170   0.46690   0.12180   Biso      1.000     H          0.28385   
         H14       1.0000    0.70660   0.96960   0.70400   Biso      1.000     H          0.09282   
         H15       1.0000    0.20660   0.96960   0.79600   Biso      1.000     H          0.099947  
         H16       1.0000    0.12170   0.96690   0.87820   Biso      1.000     H          0.124831  
         H17       1.0000    0.87830   0.46690   0.12180   Biso      1.000     H          0.124833  
         H18       1.0000    0.79340   0.46960   0.20400   Biso      1.000     H          0.099947  
         H19       1.0000    0.12170   0.03310   0.12180   Biso      1.000     H          0.124833  
         H20       1.0000    0.62170   0.46690   0.37820   Biso      1.000     H          0.124836  
         H21       1.0000    0.29340   0.03040   0.29600   Biso      1.000     H          0.099945  
         H22       1.0000    0.62170   0.53310   0.62180   Biso      1.000     H          0.124836  
         H23       1.0000    0.37830   0.96690   0.62180   Biso      1.000     H          0.124835  
         H24       1.0000    0.37830   0.03310   0.37820   Biso      1.000     H          0.124836  
         H25       1.0000    0.70660   0.46960   0.29600   Biso      1.000     H          0.099947  
         H26       1.0000    0.20660   0.03040   0.20400   Biso      1.000     H          0.099947  
         H27       1.0000    0.20660   0.46960   0.20400   Biso      1.000     H          0.092821  
         H28       1.0000    0.79340   0.53040   0.79600   Biso      1.000     H          0.099945  
         H29       1.0000    0.87830   0.53310   0.87820   Biso      1.000     H          0.124833  
         H30       1.0000    0.62170   0.96690   0.62180   Biso      1.000     H          0.283848  
         H31       1.0000    0.29340   0.96960   0.70400   Biso      1.000     H          0.099947  
         H32       1.0000    0.70660   0.53040   0.70400   Biso      1.000     H          0.099947  
         N1        1.0000    0.06242   0.15570   0.93610   Biso      1.000     N          -0.116059           
         N2        1.0000    0.11063   0.40460   0.88870   Biso      1.000     N          -0.179265           
         N3        1.0000    0.38937   0.59540   0.38870   Biso      1.000     N          -0.179271           
         N4        1.0000    0.43758   0.84430   0.43610   Biso      1.000     N          -0.116078           
         N5        1.0000    0.88937   0.09540   0.88870   Biso      1.000     N          -0.179259           
         N6        1.0000    0.56242   0.65570   0.43610   Biso      1.000     N          -0.116074           
         N7        1.0000    0.61063   0.90460   0.38870   Biso      1.000     N          -0.17927  
         N8        1.0000    0.56242   0.34430   0.56390   Biso      1.000     N          -0.116075           
         N9        1.0000    0.11063   0.59540   0.11130   Biso      1.000     N          -0.179259           
         N10       1.0000    0.93758   0.84430   0.06390   Biso      1.000     N          -0.068264           
         N11       1.0000    0.56242   0.84430   0.43610   Biso      1.000     N          -0.068186           
         N12       1.0000    0.61063   0.09540   0.61130   Biso      1.000     N          -0.17927  
         N13       1.0000    0.93758   0.65570   0.06390   Biso      1.000     N          -0.115975           
         N14       1.0000    0.06242   0.34430   0.93610   Biso      1.000     N          -0.068156           
         N15       1.0000    0.88937   0.90460   0.11130   Biso      1.000     N          -0.179228           
         N16       1.0000    0.43758   0.65570   0.43610   Biso      1.000     N          -0.068185           
         N17       1.0000    0.43758   0.15570   0.56390   Biso      1.000     N          -0.116079           
         N18       1.0000    0.93758   0.15570   0.93610   Biso      1.000     N          -0.068232           
         N19       1.0000    0.38937   0.40460   0.61130   Biso      1.000     N          -0.179269           
         N20       1.0000    0.06242   0.65570   0.06390   Biso      1.000     N          -0.068232           
         N21       1.0000    0.43758   0.34430   0.56390   Biso      1.000     N          -0.068184           
         N22       1.0000    0.56242   0.15570   0.56390   Biso      1.000     N          -0.068187           
         N23       1.0000    0.06242   0.84430   0.06390   Biso      1.000     N          -0.115979           
         N24       1.0000    0.93758   0.34430   0.93610   Biso      1.000     N          -0.115981 