
##########################################################################
#               Crystallographic Information Format file
#               Produced by PyCifRW module
#
#  This is a CIF file.  CIF has been adopted by the International
#  Union of Crystallography as the standard for data archiving and
#  transmission.
#
#  For information on this file format, follow the CIF links at
#  http://www.iucr.org
##########################################################################

data_image0

_cell_length_a                          24.561
_cell_length_b                          6.986
_cell_length_c                          9.1333
_cell_angle_alpha                       90
_cell_angle_beta                        90
_cell_angle_gamma                       90
_symmetry_space_group_name_H-M          'P 1'
_symmetry_int_tables_number             1
loop_
  _symmetry_equiv_pos_as_xyz
         'x, y, z' 
loop_
  _atom_site_label
  _atom_site_occupancy
  _atom_site_fract_x
  _atom_site_fract_y
  _atom_site_fract_z
  _atom_site_thermal_displace_type
  _atom_site_B_iso_or_equiv
  _atom_site_type_symbol
  _atom_site_charge
         C1        1.0000    0.80600   0.25000   0.78260   Biso      1.000     C          0.011642  
         C2        1.0000    0.36390   0.25000   0.67720   Biso      1.000     C          0.091726  
         C3        1.0000    0.60583   0.59410   0.35270   Biso      1.000     C          -0.130204           
         C4        1.0000    0.22230   0.41400   0.76590   Biso      1.000     C          -0.156633           
         C5        1.0000    0.22230   0.58600   0.23410   Biso      1.000     C          -0.156633           
         C6        1.0000    0.10583   0.09410   0.85270   Biso      1.000     C          -0.130204           
         C7        1.0000    0.22230   0.08600   0.76590   Biso      1.000     C          -0.148894           
         C8        1.0000    0.72230   0.08600   0.73410   Biso      1.000     C          -0.156644           
         C9        1.0000    0.39417   0.90590   0.35270   Biso      1.000     C          -0.130204           
         C10       1.0000    0.27770   0.91400   0.26590   Biso      1.000     C          -0.148895           
         C11       1.0000    0.77770   0.91400   0.23410   Biso      1.000     C          -0.156633           
         C12       1.0000    0.27770   0.41400   0.73410   Biso      1.000     C          -0.156639           
         C13       1.0000    0.89417   0.40590   0.85270   Biso      1.000     C          -0.13020299999999999          
         C14       1.0000    0.77770   0.41400   0.76590   Biso      1.000     C          -0.148873           
         C15       1.0000    0.77770   0.08600   0.76590   Biso      1.000     C          -0.15661  
         C16       1.0000    0.86390   0.25000   0.82280   Biso      1.000     C          0.09174700000000001           
         C17       1.0000    0.72230   0.91400   0.26590   Biso      1.000     C          -0.156638           
         C18       1.0000    0.27770   0.58600   0.26590   Biso      1.000     C          -0.156639           
         C19       1.0000    0.22230   0.91400   0.23410   Biso      1.000     C          -0.148891           
         C20       1.0000    0.10583   0.90590   0.14730   Biso      1.000     C          -0.130204           
         C21       1.0000    0.72230   0.58600   0.26590   Biso      1.000     C          -0.148894           
         C22       1.0000    0.86390   0.75000   0.17720   Biso      1.000     C          0.091727  
         C23       1.0000    0.30600   0.75000   0.28260   Biso      1.000     C          0.011679  
         C24       1.0000    0.39417   0.09410   0.64730   Biso      1.000     C          -0.130185           
         C25       1.0000    0.27770   0.08600   0.73410   Biso      1.000     C          -0.148893           
         C26       1.0000    0.36390   0.75000   0.32280   Biso      1.000     C          0.09174   
         C27       1.0000    0.19400   0.25000   0.78260   Biso      1.000     C          0.011679  
         C28       1.0000    0.13610   0.25000   0.82280   Biso      1.000     C          0.09174500000000001           
         C29       1.0000    0.69400   0.75000   0.28260   Biso      1.000     C          0.011678000000000001          
         C30       1.0000    0.89417   0.59410   0.14730   Biso      1.000     C          -0.130182           
         C31       1.0000    0.77770   0.58600   0.23410   Biso      1.000     C          -0.148892           
         C32       1.0000    0.30600   0.25000   0.71740   Biso      1.000     C          0.011679  
         C33       1.0000    0.19400   0.75000   0.21740   Biso      1.000     C          0.011679  
         C34       1.0000    0.63610   0.75000   0.32280   Biso      1.000     C          0.09174199999999999           
         C35       1.0000    0.72230   0.41400   0.73410   Biso      1.000     C          -0.148895           
         C36       1.0000    0.69400   0.25000   0.71740   Biso      1.000     C          0.011679  
         C37       1.0000    0.80600   0.75000   0.21740   Biso      1.000     C          0.011677  
         C38       1.0000    0.60583   0.40590   0.64730   Biso      1.000     C          -0.130197           
         C39       1.0000    0.13610   0.75000   0.17720   Biso      1.000     C          0.09174500000000001           
         C40       1.0000    0.63610   0.25000   0.67720   Biso      1.000     C          0.09174199999999999           
         Cu1       1.0000    0.00000   0.00000   0.00000   Biso      1.000     Cu          0.218948  
         Cu2       1.0000    0.50000   0.50000   0.50000   Biso      1.000     Cu          0.219085  
         Cu3       1.0000    0.00000   0.50000   0.00000   Biso      1.000     Cu          0.21901700000000002           
         Cu4       1.0000    0.50000   0.00000   0.50000   Biso      1.000     Cu          0.21906599999999998           
         H1        1.0000    0.29600   0.46710   0.27610   Biso      1.000     H          0.09403099999999999           
         H2        1.0000    0.88320   0.96460   0.84090   Biso      1.000     H          0.284802  
         H3        1.0000    0.79600   0.96710   0.77610   Biso      1.000     H          0.09403099999999999           
         H4        1.0000    0.70400   0.96710   0.72390   Biso      1.000     H          0.094032  
         H5        1.0000    0.29600   0.53290   0.72390   Biso      1.000     H          0.09403099999999999           
         H6        1.0000    0.88320   0.03540   0.15910   Biso      1.000     H          0.284802  
         H7        1.0000    0.20400   0.46710   0.22390   Biso      1.000     H          0.094034  
         H8        1.0000    0.11680   0.46460   0.15910   Biso      1.000     H          0.284801  
         H9        1.0000    0.79600   0.03290   0.22390   Biso      1.000     H          0.094033  
         H10       1.0000    0.61680   0.96460   0.65910   Biso      1.000     H          0.284802  
         H11       1.0000    0.38320   0.53540   0.65910   Biso      1.000     H          0.284802  
         H12       1.0000    0.38320   0.46460   0.34090   Biso      1.000     H          0.2848    
         H13       1.0000    0.61680   0.03540   0.34090   Biso      1.000     H          0.284802  
         H14       1.0000    0.20400   0.53290   0.77610   Biso      1.000     H          0.094034  
         H15       1.0000    0.70400   0.53290   0.72390   Biso      1.000     H          0.100719  
         H16       1.0000    0.61680   0.53540   0.65910   Biso      1.000     H          0.125622  
         H17       1.0000    0.38320   0.03540   0.34090   Biso      1.000     H          0.125622  
         H18       1.0000    0.29600   0.03290   0.27610   Biso      1.000     H          0.100719  
         H19       1.0000    0.61680   0.46460   0.34090   Biso      1.000     H          0.125622  
         H20       1.0000    0.11680   0.03540   0.15910   Biso      1.000     H          0.125619  
         H21       1.0000    0.79600   0.46710   0.22390   Biso      1.000     H          0.100719  
         H22       1.0000    0.11680   0.96460   0.84090   Biso      1.000     H          0.125619  
         H23       1.0000    0.88320   0.53540   0.84090   Biso      1.000     H          0.125619  
         H24       1.0000    0.88320   0.46460   0.15910   Biso      1.000     H          0.125617  
         H25       1.0000    0.20400   0.03290   0.22390   Biso      1.000     H          0.100719  
         H26       1.0000    0.70400   0.46710   0.27610   Biso      1.000     H          0.100719  
         H27       1.0000    0.70400   0.03290   0.27610   Biso      1.000     H          0.09403099999999999           
         H28       1.0000    0.29600   0.96710   0.72390   Biso      1.000     H          0.100719  
         H29       1.0000    0.38320   0.96460   0.65910   Biso      1.000     H          0.125621  
         H30       1.0000    0.11680   0.53540   0.84090   Biso      1.000     H          0.284801  
         H31       1.0000    0.79600   0.53290   0.77610   Biso      1.000     H          0.100717  
         H32       1.0000    0.20400   0.96710   0.77610   Biso      1.000     H          0.100719  
         N1        1.0000    0.55766   0.34570   0.59820   Biso      1.000     N          -0.12256099999999999          
         N2        1.0000    0.60583   0.09410   0.64730   Biso      1.000     N          -0.184699           
         N3        1.0000    0.89417   0.90590   0.14730   Biso      1.000     N          -0.184693           
         N4        1.0000    0.94234   0.65430   0.09820   Biso      1.000     N          -0.122544           
         N5        1.0000    0.39417   0.40590   0.64730   Biso      1.000     N          -0.18469100000000002          
         N6        1.0000    0.05766   0.84570   0.09820   Biso      1.000     N          -0.12253399999999999          
         N7        1.0000    0.10583   0.59410   0.14730   Biso      1.000     N          -0.184697           
         N8        1.0000    0.05766   0.15430   0.90180   Biso      1.000     N          -0.12253399999999999          
         N9        1.0000    0.60583   0.90590   0.35270   Biso      1.000     N          -0.184693           
         N10       1.0000    0.44234   0.65430   0.40180   Biso      1.000     N          -0.075245           
         N11       1.0000    0.05766   0.65430   0.09820   Biso      1.000     N          -0.075128           
         N12       1.0000    0.10583   0.40590   0.85270   Biso      1.000     N          -0.184697           
         N13       1.0000    0.44234   0.84570   0.40180   Biso      1.000     N          -0.12249000000000002          
         N14       1.0000    0.55766   0.15430   0.59820   Biso      1.000     N          -0.075145           
         N15       1.0000    0.39417   0.59410   0.35270   Biso      1.000     N          -0.184661           
         N16       1.0000    0.94234   0.84570   0.09820   Biso      1.000     N          -0.07511699999999999          
         N17       1.0000    0.94234   0.34570   0.90180   Biso      1.000     N          -0.12254100000000001          
         N18       1.0000    0.44234   0.34570   0.59820   Biso      1.000     N          -0.07521  
         N19       1.0000    0.89417   0.09410   0.85270   Biso      1.000     N          -0.184696           
         N20       1.0000    0.55766   0.84570   0.40180   Biso      1.000     N          -0.075209           
         N21       1.0000    0.94234   0.15430   0.90180   Biso      1.000     N          -0.07511699999999999          
         N22       1.0000    0.05766   0.34570   0.90180   Biso      1.000     N          -0.075128           
         N23       1.0000    0.55766   0.65430   0.40180   Biso      1.000     N          -0.122495           
         N24       1.0000    0.44234   0.15430   0.59820   Biso      1.000     N          -0.122498 