
##########################################################################
#               Crystallographic Information Format file
#               Produced by PyCifRW module
#
#  This is a CIF file.  CIF has been adopted by the International
#  Union of Crystallography as the standard for data archiving and
#  transmission.
#
#  For information on this file format, follow the CIF links at
#  http://www.iucr.org
##########################################################################

data_image0

_cell_length_a                          17.0093
_cell_length_b                          11.9939
_cell_length_c                          25.0317
_cell_angle_alpha                       90
_cell_angle_beta                        92.911
_cell_angle_gamma                       90
_symmetry_space_group_name_H-M          'P 1'
_symmetry_int_tables_number             1
loop_
  _symmetry_equiv_pos_as_xyz
         'x, y, z' 
loop_
  _atom_site_label
  _atom_site_occupancy
  _atom_site_fract_x
  _atom_site_fract_y
  _atom_site_fract_z
  _atom_site_thermal_displace_type
  _atom_site_B_iso_or_equiv
  _atom_site_type_symbol
  _atom_site_charge
         C1        1.0000    0.21920   0.51440   0.58180   Biso      1.000     C          -0.107139           
         C2        1.0000    0.65430   0.99290   0.85490   Biso      1.000     C          -0.124606           
         C3        1.0000    0.15430   0.50710   0.35490   Biso      1.000     C          -0.124694           
         C4        1.0000    0.85180   0.55250   0.41030   Biso      1.000     C          0.607669  
         C5        1.0000    0.78080   0.48560   0.41820   Biso      1.000     C          -0.107025           
         C6        1.0000    0.08300   0.54910   0.38240   Biso      1.000     C          0.646464  
         C7        1.0000    0.15530   0.11800   0.90330   Biso      1.000     C          -0.1109   
         C8        1.0000    0.58340   0.33540   0.37800   Biso      1.000     C          0.657046  
         C9        1.0000    0.18510   0.11880   0.95520   Biso      1.000     C          -0.106637           
         C10       1.0000    0.85330   0.15450   0.84220   Biso      1.000     C          0.65705   
         C11       1.0000    0.65530   0.38200   0.40330   Biso      1.000     C          -0.110758           
         C12       1.0000    0.25560   0.05730   0.96330   Biso      1.000     C          -0.11285  
         C13       1.0000    0.67640   0.96600   0.80560   Biso      1.000     C          -0.105962           
         C14       1.0000    0.74870   0.02100   0.79460   Biso      1.000     C          -0.119081           
         C15       1.0000    0.18510   0.88120   0.45520   Biso      1.000     C          -0.105963           
         C16       1.0000    0.41660   0.66460   0.62200   Biso      1.000     C          0.656861  
         C17       1.0000    0.91700   0.45090   0.61760   Biso      1.000     C          0.646526  
         C18       1.0000    0.74870   0.97900   0.29460   Biso      1.000     C          -0.119772           
         C19       1.0000    0.25130   0.97900   0.20540   Biso      1.000     C          -0.11955  
         C20       1.0000    0.14820   0.44750   0.58970   Biso      1.000     C          0.607553  
         C21       1.0000    0.32360   0.03400   0.19440   Biso      1.000     C          -0.106302           
         C22       1.0000    0.77910   0.08500   0.83630   Biso      1.000     C          -0.125247           
         C23       1.0000    0.68510   0.38120   0.45520   Biso      1.000     C          -0.105925           
         C24       1.0000    0.35180   0.94750   0.91030   Biso      1.000     C          0.607524  
         C25       1.0000    0.35330   0.34550   0.34220   Biso      1.000     C          0.657219  
         C26       1.0000    0.35180   0.05250   0.41030   Biso      1.000     C          0.60758   
         C27       1.0000    0.28080   0.98560   0.41820   Biso      1.000     C          -0.106802           
         C28       1.0000    0.58300   0.04910   0.38240   Biso      1.000     C          0.646408  
         C29       1.0000    0.85180   0.44750   0.91030   Biso      1.000     C          0.60756   
         C30       1.0000    0.08340   0.83540   0.37800   Biso      1.000     C          0.657077  
         C31       1.0000    0.15430   0.49290   0.85490   Biso      1.000     C          -0.124782           
         C32       1.0000    0.65530   0.61800   0.90330   Biso      1.000     C          -0.11068  
         C33       1.0000    0.68510   0.61880   0.95520   Biso      1.000     C          -0.106771           
         C34       1.0000    0.35330   0.65450   0.84220   Biso      1.000     C          0.657017  
         C35       1.0000    0.75560   0.55730   0.96330   Biso      1.000     C          -0.112734           
         C36       1.0000    0.27910   0.58500   0.83630   Biso      1.000     C          -0.125047           
         C37       1.0000    0.17640   0.46600   0.80560   Biso      1.000     C          -0.105988           
         C38       1.0000    0.24870   0.52100   0.79460   Biso      1.000     C          -0.119185           
         C39       1.0000    0.15530   0.88200   0.40330   Biso      1.000     C          -0.111021           
         C40       1.0000    0.08340   0.16460   0.87800   Biso      1.000     C          0.656866  
         C41       1.0000    0.24870   0.47900   0.29460   Biso      1.000     C          -0.119778           
         C42       1.0000    0.58300   0.95090   0.88240   Biso      1.000     C          0.646486  
         C43       1.0000    0.17640   0.53400   0.30560   Biso      1.000     C          -0.106502           
         C44       1.0000    0.27910   0.41500   0.33630   Biso      1.000     C          -0.125372           
         C45       1.0000    0.28080   0.01440   0.91820   Biso      1.000     C          -0.107014           
         C46       1.0000    0.75560   0.44270   0.46330   Biso      1.000     C          -0.111824           
         C47       1.0000    0.22090   0.91500   0.16370   Biso      1.000     C          -0.125047           
         C48       1.0000    0.65430   0.00710   0.35490   Biso      1.000     C          -0.124477           
         C49       1.0000    0.84570   0.49290   0.64510   Biso      1.000     C          -0.124784           
         C50       1.0000    0.14670   0.84550   0.15780   Biso      1.000     C          0.657138  
         C51       1.0000    0.81490   0.11880   0.54480   Biso      1.000     C          -0.106938           
         C52       1.0000    0.24440   0.44270   0.03670   Biso      1.000     C          -0.112438           
         C53       1.0000    0.64670   0.34550   0.15780   Biso      1.000     C          0.657163  
         C54       1.0000    0.14670   0.15450   0.65780   Biso      1.000     C          0.657199  
         C55       1.0000    0.31490   0.38120   0.04480   Biso      1.000     C          -0.10621  
         C56       1.0000    0.34470   0.38200   0.09670   Biso      1.000     C          -0.111229           
         C57       1.0000    0.74440   0.05730   0.53670   Biso      1.000     C          -0.113291           
         C58       1.0000    0.84570   0.50710   0.14510   Biso      1.000     C          -0.124352           
         C59       1.0000    0.14820   0.55250   0.08970   Biso      1.000     C          0.607506  
         C60       1.0000    0.72090   0.41500   0.16370   Biso      1.000     C          -0.125563           
         C61       1.0000    0.21920   0.48560   0.08180   Biso      1.000     C          -0.106676           
         C62       1.0000    0.22090   0.08500   0.66370   Biso      1.000     C          -0.125475           
         C63       1.0000    0.41660   0.33540   0.12200   Biso      1.000     C          0.657076  
         C64       1.0000    0.32360   0.96600   0.69440   Biso      1.000     C          -0.106878           
         C65       1.0000    0.25130   0.02100   0.70540   Biso      1.000     C          -0.120161           
         C66       1.0000    0.85330   0.84550   0.34220   Biso      1.000     C          0.657172  
         C67       1.0000    0.25560   0.94270   0.46330   Biso      1.000     C          -0.11192  
         C68       1.0000    0.58340   0.66460   0.87800   Biso      1.000     C          0.656776  
         C69       1.0000    0.77910   0.91500   0.33630   Biso      1.000     C          -0.125531           
         C70       1.0000    0.67640   0.03400   0.30560   Biso      1.000     C          -0.106714           
         C71       1.0000    0.91700   0.54910   0.11760   Biso      1.000     C          0.64643   
         C72       1.0000    0.74440   0.94270   0.03670   Biso      1.000     C          -0.112178           
         C73       1.0000    0.82360   0.53400   0.19440   Biso      1.000     C          -0.106465           
         C74       1.0000    0.75130   0.47900   0.20540   Biso      1.000     C          -0.119387           
         C75       1.0000    0.34470   0.61800   0.59670   Biso      1.000     C          -0.110599           
         C76       1.0000    0.81490   0.88120   0.04480   Biso      1.000     C          -0.106348           
         C77       1.0000    0.84470   0.88200   0.09670   Biso      1.000     C          -0.110516           
         C78       1.0000    0.31490   0.61880   0.54480   Biso      1.000     C          -0.10693  
         C79       1.0000    0.34570   0.00710   0.14510   Biso      1.000     C          -0.124933           
         C80       1.0000    0.64820   0.05250   0.08970   Biso      1.000     C          0.607686  
         C81       1.0000    0.71920   0.98560   0.08180   Biso      1.000     C          -0.107325           
         C82       1.0000    0.41700   0.04910   0.11760   Biso      1.000     C          0.646532  
         C83       1.0000    0.64670   0.65450   0.65780   Biso      1.000     C          0.657169  
         C84       1.0000    0.84470   0.11800   0.59670   Biso      1.000     C          -0.110917           
         C85       1.0000    0.91660   0.83540   0.12200   Biso      1.000     C          0.656902  
         C86       1.0000    0.72090   0.58500   0.66370   Biso      1.000     C          -0.125202           
         C87       1.0000    0.82360   0.46600   0.69440   Biso      1.000     C          -0.106825           
         C88       1.0000    0.75130   0.52100   0.70540   Biso      1.000     C          -0.12023  
         C89       1.0000    0.08300   0.45090   0.88240   Biso      1.000     C          0.646474  
         C90       1.0000    0.91660   0.16460   0.62200   Biso      1.000     C          0.656939  
         C91       1.0000    0.41700   0.95090   0.61760   Biso      1.000     C          0.646471  
         C92       1.0000    0.71920   0.01440   0.58180   Biso      1.000     C          -0.106825           
         C93       1.0000    0.64820   0.94750   0.58970   Biso      1.000     C          0.607489  
         C94       1.0000    0.34570   0.99290   0.64510   Biso      1.000     C          -0.12451  
         C95       1.0000    0.24440   0.55730   0.53670   Biso      1.000     C          -0.113155           
         C96       1.0000    0.78080   0.51440   0.91820   Biso      1.000     C          -0.107243           
         Ca1       1.0000    0.00000   0.50000   0.50000   Biso      1.000     Ca          1.547928  
         Ca2       1.0000    0.50000   0.00000   0.50000   Biso      1.000     Ca          1.54748   
         Ca3       1.0000    0.50000   0.35900   0.25000   Biso      1.000     Ca          1.540848  
         Ca4       1.0000    0.00000   0.85900   0.25000   Biso      1.000     Ca          1.540575  
         Ca5       1.0000    0.50000   0.64100   0.75000   Biso      1.000     Ca          1.540201  
         Ca6       1.0000    0.00000   0.14100   0.75000   Biso      1.000     Ca          1.540441  
         Ca7       1.0000    0.00000   0.50000   0.00000   Biso      1.000     Ca          1.547845  
         Ca8       1.0000    0.50000   0.00000   0.00000   Biso      1.000     Ca          1.548211  
         Cu1       1.0000    0.04641   0.30487   0.62147   Biso      1.000     Cu          0.911451  
         Cu2       1.0000    0.54641   0.80487   0.62147   Biso      1.000     Cu          0.910779  
         Cu3       1.0000    0.45359   0.80487   0.87853   Biso      1.000     Cu          0.91222   
         Cu4       1.0000    0.95359   0.30487   0.87853   Biso      1.000     Cu          0.912945  
         Cu5       1.0000    0.04641   0.69513   0.12147   Biso      1.000     Cu          0.911906  
         Cu6       1.0000    0.95359   0.69513   0.37853   Biso      1.000     Cu          0.913592  
         Cu7       1.0000    0.54641   0.19513   0.12147   Biso      1.000     Cu          0.913941  
         Cu8       1.0000    0.45359   0.19513   0.37853   Biso      1.000     Cu          0.912702  
         H1        1.0000    0.33890   0.65630   0.51740   Biso      1.000     H          0.135742  
         H2        1.0000    0.72710   0.48690   0.23770   Biso      1.000     H          0.122435  
         H3        1.0000    0.14850   0.41920   0.78200   Biso      1.000     H          0.146565  
         H4        1.0000    0.27290   0.51310   0.76230   Biso      1.000     H          0.12265   
         H5        1.0000    0.64850   0.91920   0.78200   Biso      1.000     H          0.146624  
         H6        1.0000    0.78160   0.54770   0.99660   Biso      1.000     H          0.12769   
         H7        1.0000    0.28160   0.04770   0.99660   Biso      1.000     H          0.127694  
         H8        1.0000    0.21840   0.54770   0.50340   Biso      1.000     H          0.127511  
         H9        1.0000    0.16110   0.15630   0.98260   Biso      1.000     H          0.136008  
         H10       1.0000    0.27290   0.48690   0.26230   Biso      1.000     H          0.122263  
         H11       1.0000    0.14850   0.58080   0.28200   Biso      1.000     H          0.146308  
         H12       1.0000    0.78160   0.45230   0.49660   Biso      1.000     H          0.128143  
         H13       1.0000    0.66110   0.34370   0.48260   Biso      1.000     H          0.136448  
         H14       1.0000    0.72710   0.51310   0.73770   Biso      1.000     H          0.122088  
         H15       1.0000    0.85150   0.58080   0.21800   Biso      1.000     H          0.146445  
         H16       1.0000    0.85150   0.41920   0.71800   Biso      1.000     H          0.146091  
         H17       1.0000    0.66110   0.65630   0.98260   Biso      1.000     H          0.13592   
         H18       1.0000    0.22710   0.98690   0.23770   Biso      1.000     H          0.122463  
         H19       1.0000    0.64850   0.08080   0.28200   Biso      1.000     H          0.146255  
         H20       1.0000    0.35150   0.08080   0.21800   Biso      1.000     H          0.146407  
         H21       1.0000    0.77290   0.98690   0.26230   Biso      1.000     H          0.122258  
         H22       1.0000    0.71840   0.95230   0.00340   Biso      1.000     H          0.127959  
         H23       1.0000    0.22710   0.01310   0.73770   Biso      1.000     H          0.122052  
         H24       1.0000    0.21840   0.45230   0.00340   Biso      1.000     H          0.127979  
         H25       1.0000    0.28160   0.95230   0.49660   Biso      1.000     H          0.12816   
         H26       1.0000    0.16110   0.84370   0.48260   Biso      1.000     H          0.136407  
         H27       1.0000    0.83890   0.84370   0.01740   Biso      1.000     H          0.136212  
         H28       1.0000    0.71840   0.04770   0.50340   Biso      1.000     H          0.127522  
         H29       1.0000    0.77290   0.01310   0.76230   Biso      1.000     H          0.122631  
         H30       1.0000    0.33890   0.34370   0.01740   Biso      1.000     H          0.136201  
         H31       1.0000    0.83890   0.15630   0.51740   Biso      1.000     H          0.135667  
         H32       1.0000    0.35150   0.91920   0.71800   Biso      1.000     H          0.146137  
         O1        1.0000    0.92880   0.84640   0.17070   Biso      1.000     O          -0.692375           
         O2        1.0000    0.41870   0.03900   0.06890   Biso      1.000     O          -0.68899  
         O3        1.0000    0.60890   0.65800   0.70120   Biso      1.000     O          -0.74016  
         O4        1.0000    0.63390   0.09130   0.13630   Biso      1.000     O          -0.520563           
         O5        1.0000    0.10890   0.84200   0.20120   Biso      1.000     O          -0.739465           
         O6        1.0000    0.60450   0.07720   0.04920   Biso      1.000     O          -0.686396           
         O7        1.0000    0.96940   0.40950   0.64840   Biso      1.000     O          -0.5498   
         O8        1.0000    0.63390   0.90870   0.63630   Biso      1.000     O          -0.522228           
         O9        1.0000    0.46940   0.09050   0.14840   Biso      1.000     O          -0.548414           
         O10       1.0000    0.46160   0.28900   0.09120   Biso      1.000     O          -0.541582           
         O11       1.0000    0.96940   0.59050   0.14840   Biso      1.000     O          -0.549513           
         O12       1.0000    0.62720   0.31100   0.11540   Biso      1.000     O          -0.487148           
         O13       1.0000    0.10450   0.57720   0.04920   Biso      1.000     O          -0.686554           
         O14       1.0000    0.13390   0.59130   0.13630   Biso      1.000     O          -0.521625           
         O15       1.0000    0.91870   0.53900   0.06890   Biso      1.000     O          -0.689377           
         O16       1.0000    0.42880   0.34640   0.17070   Biso      1.000     O          -0.691994           
         O17       1.0000    0.12720   0.81100   0.11540   Biso      1.000     O          -0.487897           
         O18       1.0000    0.60890   0.34200   0.20120   Biso      1.000     O          -0.739145           
         O19       1.0000    0.92880   0.15360   0.67070   Biso      1.000     O          -0.692723           
         O20       1.0000    0.96160   0.78900   0.09120   Biso      1.000     O          -0.542519           
         O21       1.0000    0.41870   0.96100   0.56890   Biso      1.000     O          -0.690091           
         O22       1.0000    0.60450   0.92280   0.54920   Biso      1.000     O          -0.687306           
         O23       1.0000    0.12720   0.18900   0.61540   Biso      1.000     O          -0.488155           
         O24       1.0000    0.46940   0.90950   0.64840   Biso      1.000     O          -0.550104           
         O25       1.0000    0.96160   0.21100   0.59120   Biso      1.000     O          -0.542959           
         O26       1.0000    0.10890   0.15800   0.70120   Biso      1.000     O          -0.740147           
         O27       1.0000    0.42880   0.65360   0.67070   Biso      1.000     O          -0.692748           
         O28       1.0000    0.53840   0.71100   0.90880   Biso      1.000     O          -0.54259  
         O29       1.0000    0.91870   0.46100   0.56890   Biso      1.000     O          -0.690037           
         O30       1.0000    0.87280   0.18900   0.88460   Biso      1.000     O          -0.487699           
         O31       1.0000    0.53060   0.90950   0.85160   Biso      1.000     O          -0.5488   
         O32       1.0000    0.03840   0.78900   0.40880   Biso      1.000     O          -0.541653           
         O33       1.0000    0.53060   0.09050   0.35160   Biso      1.000     O          -0.549514           
         O34       1.0000    0.87280   0.81100   0.38460   Biso      1.000     O          -0.487087           
         O35       1.0000    0.39550   0.07720   0.45080   Biso      1.000     O          -0.686105           
         O36       1.0000    0.36610   0.09130   0.36370   Biso      1.000     O          -0.521585           
         O37       1.0000    0.39110   0.65800   0.79880   Biso      1.000     O          -0.738967           
         O38       1.0000    0.58130   0.03900   0.43110   Biso      1.000     O          -0.688794           
         O39       1.0000    0.07120   0.84640   0.32930   Biso      1.000     O          -0.69228  
         O40       1.0000    0.89110   0.84200   0.29880   Biso      1.000     O          -0.739491           
         O41       1.0000    0.57120   0.65360   0.82930   Biso      1.000     O          -0.691768           
         O42       1.0000    0.08130   0.46100   0.93110   Biso      1.000     O          -0.689512           
         O43       1.0000    0.86610   0.40870   0.86370   Biso      1.000     O          -0.520483           
         O44       1.0000    0.89550   0.42280   0.95080   Biso      1.000     O          -0.686812           
         O45       1.0000    0.37280   0.68900   0.88460   Biso      1.000     O          -0.488011           
         O46       1.0000    0.03060   0.40950   0.85160   Biso      1.000     O          -0.548468           
         O47       1.0000    0.39550   0.92280   0.95080   Biso      1.000     O          -0.687013           
         O48       1.0000    0.36610   0.90870   0.86370   Biso      1.000     O          -0.520809           
         O49       1.0000    0.03840   0.21100   0.90880   Biso      1.000     O          -0.542102           
         O50       1.0000    0.89550   0.57720   0.45080   Biso      1.000     O          -0.686119           
         O51       1.0000    0.03060   0.59050   0.35160   Biso      1.000     O          -0.548994           
         O52       1.0000    0.37280   0.31100   0.38460   Biso      1.000     O          -0.487316           
         O53       1.0000    0.58130   0.96100   0.93110   Biso      1.000     O          -0.689832           
         O54       1.0000    0.86610   0.59130   0.36370   Biso      1.000     O          -0.521115           
         O55       1.0000    0.08130   0.53900   0.43110   Biso      1.000     O          -0.688755           
         O56       1.0000    0.57120   0.34640   0.32930   Biso      1.000     O          -0.692586           
         O57       1.0000    0.89110   0.15800   0.79880   Biso      1.000     O          -0.738936           
         O58       1.0000    0.53840   0.28900   0.40880   Biso      1.000     O          -0.541878           
         O59       1.0000    0.46160   0.71100   0.59120   Biso      1.000     O          -0.543218           
         O60       1.0000    0.10450   0.42280   0.54920   Biso      1.000     O          -0.6873   
         O61       1.0000    0.13390   0.40870   0.63630   Biso      1.000     O          -0.521839           
         O62       1.0000    0.39110   0.34200   0.29880   Biso      1.000     O          -0.739793           
         O63       1.0000    0.07120   0.15360   0.82930   Biso      1.000     O          -0.691701           
         O64       1.0000    0.62720   0.68900   0.61540   Biso      1.000     O          -0.488443           
         S1        1.0000    0.28270   0.53860   0.63616   Biso      1.000     S          0.131505  
         S2        1.0000    0.71730   0.53860   0.86384   Biso      1.000     S          0.132994  
         S3        1.0000    0.28270   0.46140   0.13616   Biso      1.000     S          0.132408  
         S4        1.0000    0.77800   0.42600   0.10954   Biso      1.000     S          0.132099  
         S5        1.0000    0.77800   0.57400   0.60954   Biso      1.000     S          0.131013  
         S6        1.0000    0.78270   0.03860   0.63616   Biso      1.000     S          0.131478  
         S7        1.0000    0.21730   0.96140   0.36384   Biso      1.000     S          0.13164   
         S8        1.0000    0.72200   0.92600   0.39046   Biso      1.000     S          0.132985  
         S9        1.0000    0.27800   0.92600   0.10954   Biso      1.000     S          0.132313  
         S10       1.0000    0.78270   0.96140   0.13616   Biso      1.000     S          0.132051  
         S11       1.0000    0.72200   0.07400   0.89046   Biso      1.000     S          0.131095  
         S12       1.0000    0.21730   0.03860   0.86384   Biso      1.000     S          0.13314   
         S13       1.0000    0.22200   0.42600   0.39046   Biso      1.000     S          0.132999  
         S14       1.0000    0.27800   0.07400   0.60954   Biso      1.000     S          0.130962  
         S15       1.0000    0.71730   0.46140   0.36384   Biso      1.000     S          0.131483  
         S16       1.0000    0.22200   0.57400   0.89046   Biso      1.000     S          0.131366 