
##########################################################################
#               Crystallographic Information Format file
#               Produced by PyCifRW module
#
#  This is a CIF file.  CIF has been adopted by the International
#  Union of Crystallography as the standard for data archiving and
#  transmission.
#
#  For information on this file format, follow the CIF links at
#  http://www.iucr.org
##########################################################################

data_image0

_cell_length_a                          9.942
_cell_length_b                          9.942
_cell_length_c                          15.764
_cell_angle_alpha                       90
_cell_angle_beta                        90
_cell_angle_gamma                       90
_symmetry_space_group_name_H-M          'P 1'
_symmetry_int_tables_number             1
loop_
  _symmetry_equiv_pos_as_xyz
         'x, y, z' 
loop_
  _atom_site_label
  _atom_site_occupancy
  _atom_site_fract_x
  _atom_site_fract_y
  _atom_site_fract_z
  _atom_site_thermal_displace_type
  _atom_site_B_iso_or_equiv
  _atom_site_type_symbol
  _atom_site_charge
         C1        1.0000    0.24210   0.16010   0.31200   Biso      1.000     C          0.030275  
         C2        1.0000    0.66010   0.74210   0.68800   Biso      1.000     C          0.073548  
         C3        1.0000    0.25790   0.66010   0.31200   Biso      1.000     C          0.073548  
         C4        1.0000    0.83990   0.75790   0.18800   Biso      1.000     C          0.073548  
         C5        1.0000    0.33990   0.25790   0.68800   Biso      1.000     C          0.073548  
         C6        1.0000    0.75790   0.83990   0.68800   Biso      1.000     C          0.030285  
         C7        1.0000    0.25790   0.33990   0.18800   Biso      1.000     C          0.030276  
         C8        1.0000    0.24210   0.16010   0.68800   Biso      1.000     C          0.030285  
         C9        1.0000    0.74210   0.66010   0.18800   Biso      1.000     C          0.030285  
         C10       1.0000    0.16010   0.24210   0.18800   Biso      1.000     C          0.073558  
         C11       1.0000    0.16010   0.75790   0.68800   Biso      1.000     C          0.030275  
         C12       1.0000    0.66010   0.74210   0.31200   Biso      1.000     C          0.073548  
         C13       1.0000    0.83990   0.24210   0.68800   Biso      1.000     C          0.030275  
         C14       1.0000    0.33990   0.74210   0.18800   Biso      1.000     C          0.030276  
         C15       1.0000    0.16010   0.24210   0.81200   Biso      1.000     C          0.073548  
         C16       1.0000    0.24210   0.83990   0.81200   Biso      1.000     C          0.073548  
         C17       1.0000    0.74210   0.33990   0.31200   Biso      1.000     C          0.073548  
         C18       1.0000    0.33990   0.25790   0.31200   Biso      1.000     C          0.073558  
         C19       1.0000    0.75790   0.16010   0.81200   Biso      1.000     C          0.073547  
         C20       1.0000    0.66010   0.25790   0.18800   Biso      1.000     C          0.030276  
         C21       1.0000    0.74210   0.33990   0.68800   Biso      1.000     C          0.073557  
         C22       1.0000    0.83990   0.75790   0.81200   Biso      1.000     C          0.073548  
         C23       1.0000    0.24210   0.83990   0.18800   Biso      1.000     C          0.073557  
         C24       1.0000    0.74210   0.66010   0.81200   Biso      1.000     C          0.030285  
         C25       1.0000    0.25790   0.66010   0.68800   Biso      1.000     C          0.073557  
         C26       1.0000    0.75790   0.83990   0.31200   Biso      1.000     C          0.030285  
         C27       1.0000    0.75790   0.16010   0.18800   Biso      1.000     C          0.073557  
         C28       1.0000    0.25790   0.33990   0.81200   Biso      1.000     C          0.030285  
         C29       1.0000    0.66010   0.25790   0.81200   Biso      1.000     C          0.030285  
         C30       1.0000    0.83990   0.24210   0.31200   Biso      1.000     C          0.030285  
         C31       1.0000    0.33990   0.74210   0.81200   Biso      1.000     C          0.030285  
         C32       1.0000    0.16010   0.75790   0.31200   Biso      1.000     C          0.030285  
         F1        1.0000    0.30920   0.49200   0.00000   Biso      1.000     F          -0.513581           
         F2        1.0000    0.80920   0.99200   0.50000   Biso      1.000     F          -0.513582           
         F3        1.0000    0.69080   0.50800   0.00000   Biso      1.000     F          -0.513581           
         F4        1.0000    0.19080   0.00800   0.50000   Biso      1.000     F          -0.513582           
         F5        1.0000    0.50800   0.30920   0.00000   Biso      1.000     F          -0.513581           
         F6        1.0000    0.00000   0.00000   0.37690   Biso      1.000     F          -0.534001           
         F7        1.0000    0.00800   0.80920   0.50000   Biso      1.000     F          -0.513582           
         F8        1.0000    0.50000   0.50000   0.87690   Biso      1.000     F          -0.534    
         F9        1.0000    0.80920   0.00800   0.00000   Biso      1.000     F          -0.60681  
         F10       1.0000    0.19080   0.99200   0.00000   Biso      1.000     F          -0.606811           
         F11       1.0000    0.49200   0.30920   0.50000   Biso      1.000     F          -0.60681  
         F12       1.0000    0.69080   0.49200   0.50000   Biso      1.000     F          -0.606809           
         F13       1.0000    0.30920   0.50800   0.50000   Biso      1.000     F          -0.606809           
         F14       1.0000    0.99200   0.19080   0.50000   Biso      1.000     F          -0.513582           
         F15       1.0000    0.50800   0.69080   0.50000   Biso      1.000     F          -0.60681  
         F16       1.0000    0.00800   0.19080   0.00000   Biso      1.000     F          -0.606811           
         F17       1.0000    0.50000   0.50000   0.12310   Biso      1.000     F          -0.533999           
         F18       1.0000    0.49200   0.69080   0.00000   Biso      1.000     F          -0.513582           
         F19       1.0000    0.00000   0.00000   0.62310   Biso      1.000     F          -0.533999           
         F20       1.0000    0.99200   0.80920   0.00000   Biso      1.000     F          -0.606811           
         H1        1.0000    0.40150   0.26080   0.35640   Biso      1.000     H          0.123314  
         H2        1.0000    0.59850   0.73920   0.35640   Biso      1.000     H          0.123314  
         H3        1.0000    0.90150   0.76080   0.85640   Biso      1.000     H          0.123314  
         H4        1.0000    0.09850   0.23920   0.85640   Biso      1.000     H          0.123314  
         H5        1.0000    0.26080   0.59850   0.35640   Biso      1.000     H          0.123314  
         H6        1.0000    0.76080   0.09850   0.85640   Biso      1.000     H          0.123314  
         H7        1.0000    0.40150   0.26080   0.64360   Biso      1.000     H          0.123315  
         H8        1.0000    0.90150   0.76080   0.14360   Biso      1.000     H          0.123314  
         H9        1.0000    0.59850   0.73920   0.64360   Biso      1.000     H          0.123315  
         H10       1.0000    0.09850   0.23920   0.14360   Biso      1.000     H          0.123314  
         H11       1.0000    0.23920   0.90150   0.14360   Biso      1.000     H          0.123314  
         H12       1.0000    0.26080   0.59850   0.64360   Biso      1.000     H          0.123314  
         H13       1.0000    0.76080   0.09850   0.14360   Biso      1.000     H          0.123314  
         H14       1.0000    0.59850   0.26080   0.85640   Biso      1.000     H          0.107895  
         H15       1.0000    0.09850   0.76080   0.35640   Biso      1.000     H          0.107895  
         H16       1.0000    0.40150   0.73920   0.85640   Biso      1.000     H          0.107896  
         H17       1.0000    0.90150   0.23920   0.35640   Biso      1.000     H          0.107896  
         H18       1.0000    0.26080   0.40150   0.85640   Biso      1.000     H          0.107895  
         H19       1.0000    0.76080   0.90150   0.35640   Biso      1.000     H          0.107895  
         H20       1.0000    0.73920   0.59850   0.85640   Biso      1.000     H          0.107895  
         H21       1.0000    0.23920   0.09850   0.35640   Biso      1.000     H          0.107896  
         H22       1.0000    0.76080   0.90150   0.64360   Biso      1.000     H          0.107895  
         H23       1.0000    0.26080   0.40150   0.14360   Biso      1.000     H          0.107896  
         H24       1.0000    0.73920   0.40150   0.64360   Biso      1.000     H          0.123314  
         H25       1.0000    0.40150   0.73920   0.14360   Biso      1.000     H          0.107896  
         H26       1.0000    0.23920   0.90150   0.85640   Biso      1.000     H          0.123313  
         H27       1.0000    0.23920   0.09850   0.64360   Biso      1.000     H          0.107895  
         H28       1.0000    0.73920   0.59850   0.14360   Biso      1.000     H          0.107895  
         H29       1.0000    0.90150   0.23920   0.64360   Biso      1.000     H          0.107896  
         H30       1.0000    0.59850   0.26080   0.14360   Biso      1.000     H          0.107896  
         H31       1.0000    0.09850   0.76080   0.64360   Biso      1.000     H          0.107896  
         H32       1.0000    0.73920   0.40150   0.35640   Biso      1.000     H          0.123313  
         N1        1.0000    0.84860   0.84860   0.25000   Biso      1.000     N          -0.167158           
         N2        1.0000    0.34860   0.34860   0.75000   Biso      1.000     N          -0.167158           
         N3        1.0000    0.84860   0.15140   0.25000   Biso      1.000     N          -0.16716  
         N4        1.0000    0.34860   0.65140   0.75000   Biso      1.000     N          -0.167159           
         N5        1.0000    0.65140   0.34860   0.75000   Biso      1.000     N          -0.167159           
         N6        1.0000    0.84860   0.84860   0.75000   Biso      1.000     N          -0.167159           
         N7        1.0000    0.34860   0.34860   0.25000   Biso      1.000     N          -0.167158           
         N8        1.0000    0.15140   0.15140   0.75000   Biso      1.000     N          -0.167159           
         N9        1.0000    0.65140   0.65140   0.25000   Biso      1.000     N          -0.167158           
         N10       1.0000    0.15140   0.84860   0.75000   Biso      1.000     N          -0.167158           
         N11       1.0000    0.65140   0.34860   0.25000   Biso      1.000     N          -0.167158           
         N12       1.0000    0.15140   0.84860   0.25000   Biso      1.000     N          -0.16716  
         N13       1.0000    0.65140   0.65140   0.75000   Biso      1.000     N          -0.167158           
         N14       1.0000    0.34860   0.65140   0.25000   Biso      1.000     N          -0.167158           
         N15       1.0000    0.84860   0.15140   0.75000   Biso      1.000     N          -0.167158           
         N16       1.0000    0.15140   0.15140   0.25000   Biso      1.000     N          -0.167158           
         Nb1       1.0000    0.00000   0.00000   0.00000   Biso      1.000     Nb          2.473316  
         Nb2       1.0000    0.50000   0.50000   0.50000   Biso      1.000     Nb          2.473309  
         Nb3       1.0000    0.00000   0.00000   0.50000   Biso      1.000     Nb          2.392108  
         Nb4       1.0000    0.50000   0.50000   0.00000   Biso      1.000     Nb          2.392107  
         Ni1       1.0000    0.00000   0.00000   0.25000   Biso      1.000     Ni          0.694643  
         Ni2       1.0000    0.50000   0.50000   0.75000   Biso      1.000     Ni          0.69464   
         Ni3       1.0000    0.00000   0.00000   0.75000   Biso      1.000     Ni          0.694641  
         Ni4       1.0000    0.50000   0.50000   0.25000   Biso      1.000     Ni          0.69464   
         O1        1.0000    0.00000   0.00000   0.12310   Biso      1.000     O          -1.024107           
         O2        1.0000    0.50000   0.50000   0.37690   Biso      1.000     O          -1.024102           
         O3        1.0000    0.50000   0.50000   0.62310   Biso      1.000     O          -1.024106           
         O4        1.0000    0.00000   0.00000   0.87690   Biso      1.000     O          -1.024103 