
##########################################################################
#               Crystallographic Information Format file
#               Produced by PyCifRW module
#
#  This is a CIF file.  CIF has been adopted by the International
#  Union of Crystallography as the standard for data archiving and
#  transmission.
#
#  For information on this file format, follow the CIF links at
#  http://www.iucr.org
##########################################################################

data_image0

_cell_length_a                          9.8884
_cell_length_b                          9.8884
_cell_length_c                          15.7829
_cell_angle_alpha                       90
_cell_angle_beta                        90
_cell_angle_gamma                       90
_symmetry_space_group_name_H-M          'P 1'
_symmetry_int_tables_number             1
loop_
  _symmetry_equiv_pos_as_xyz
         'x, y, z' 
loop_
  _atom_site_label
  _atom_site_occupancy
  _atom_site_fract_x
  _atom_site_fract_y
  _atom_site_fract_z
  _atom_site_thermal_displace_type
  _atom_site_B_iso_or_equiv
  _atom_site_type_symbol
  _atom_site_charge
         C1        1.0000    0.24340   0.15710   0.18870   Biso      1.000     C          0.074117  
         C2        1.0000    0.65710   0.74340   0.81130   Biso      1.000     C          0.030885000000000003          
         C3        1.0000    0.25660   0.65710   0.18870   Biso      1.000     C          0.030883999999999998          
         C4        1.0000    0.84290   0.75660   0.31130   Biso      1.000     C          0.030883999999999998          
         C5        1.0000    0.34290   0.25660   0.81130   Biso      1.000     C          0.030885000000000003          
         C6        1.0000    0.75660   0.84290   0.81130   Biso      1.000     C          0.074121  
         C7        1.0000    0.25660   0.34290   0.31130   Biso      1.000     C          0.074117  
         C8        1.0000    0.24340   0.15710   0.81130   Biso      1.000     C          0.074121  
         C9        1.0000    0.74340   0.65710   0.31130   Biso      1.000     C          0.074121  
         C10       1.0000    0.15710   0.24340   0.31130   Biso      1.000     C          0.030888  
         C11       1.0000    0.15710   0.75660   0.81130   Biso      1.000     C          0.07411799999999999           
         C12       1.0000    0.65710   0.74340   0.18870   Biso      1.000     C          0.030885000000000003          
         C13       1.0000    0.84290   0.24340   0.81130   Biso      1.000     C          0.07411799999999999           
         C14       1.0000    0.34290   0.74340   0.31130   Biso      1.000     C          0.07411799999999999           
         C15       1.0000    0.15710   0.24340   0.68870   Biso      1.000     C          0.030885000000000003          
         C16       1.0000    0.24340   0.84290   0.68870   Biso      1.000     C          0.030886  
         C17       1.0000    0.74340   0.34290   0.18870   Biso      1.000     C          0.030885000000000003          
         C18       1.0000    0.34290   0.25660   0.18870   Biso      1.000     C          0.030889  
         C19       1.0000    0.75660   0.15710   0.68870   Biso      1.000     C          0.030885000000000003          
         C20       1.0000    0.65710   0.25660   0.31130   Biso      1.000     C          0.07411799999999999           
         C21       1.0000    0.74340   0.34290   0.81130   Biso      1.000     C          0.030889  
         C22       1.0000    0.84290   0.75660   0.68870   Biso      1.000     C          0.030885000000000003          
         C23       1.0000    0.24340   0.84290   0.31130   Biso      1.000     C          0.030888  
         C24       1.0000    0.74340   0.65710   0.68870   Biso      1.000     C          0.07412200000000001           
         C25       1.0000    0.25660   0.65710   0.81130   Biso      1.000     C          0.030889  
         C26       1.0000    0.75660   0.84290   0.18870   Biso      1.000     C          0.074121  
         C27       1.0000    0.75660   0.15710   0.31130   Biso      1.000     C          0.030888  
         C28       1.0000    0.25660   0.34290   0.68870   Biso      1.000     C          0.07412200000000001           
         C29       1.0000    0.65710   0.25660   0.68870   Biso      1.000     C          0.07412200000000001           
         C30       1.0000    0.84290   0.24340   0.18870   Biso      1.000     C          0.074121  
         C31       1.0000    0.34290   0.74340   0.68870   Biso      1.000     C          0.074121  
         C32       1.0000    0.15710   0.75660   0.18870   Biso      1.000     C          0.074121  
         F1        1.0000    0.48070   0.30800   0.00000   Biso      1.000     F          -0.514261           
         F2        1.0000    0.98070   0.80800   0.50000   Biso      1.000     F          -0.514261           
         F3        1.0000    0.51930   0.69200   0.00000   Biso      1.000     F          -0.514261           
         F4        1.0000    0.01930   0.19200   0.50000   Biso      1.000     F          -0.514261           
         F5        1.0000    0.69200   0.48070   0.00000   Biso      1.000     F          -0.514261           
         F6        1.0000    0.00000   0.00000   0.37770   Biso      1.000     F          -0.530335           
         F7        1.0000    0.19200   0.98070   0.50000   Biso      1.000     F          -0.514261           
         F8        1.0000    0.50000   0.50000   0.87770   Biso      1.000     F          -0.5303359999999999           
         F9        1.0000    0.98070   0.19200   0.00000   Biso      1.000     F          -0.6083689999999999           
         F10       1.0000    0.01930   0.80800   0.00000   Biso      1.000     F          -0.60837  
         F11       1.0000    0.30800   0.48070   0.50000   Biso      1.000     F          -0.608371           
         F12       1.0000    0.51930   0.30800   0.50000   Biso      1.000     F          -0.60837  
         F13       1.0000    0.48070   0.69200   0.50000   Biso      1.000     F          -0.60837  
         F14       1.0000    0.80800   0.01930   0.50000   Biso      1.000     F          -0.514263           
         F15       1.0000    0.69200   0.51930   0.50000   Biso      1.000     F          -0.608371           
         F16       1.0000    0.19200   0.01930   0.00000   Biso      1.000     F          -0.608371           
         F17       1.0000    0.50000   0.50000   0.12230   Biso      1.000     F          -0.530337           
         F18       1.0000    0.30800   0.51930   0.00000   Biso      1.000     F          -0.514263           
         F19       1.0000    0.00000   0.00000   0.62230   Biso      1.000     F          -0.530335           
         F20       1.0000    0.80800   0.98070   0.00000   Biso      1.000     F          -0.608371           
         H1        1.0000    0.40630   0.25900   0.14520   Biso      1.000     H          0.10956800000000001           
         H2        1.0000    0.59370   0.74100   0.14520   Biso      1.000     H          0.10956800000000001           
         H3        1.0000    0.90630   0.75900   0.64520   Biso      1.000     H          0.109569  
         H4        1.0000    0.09370   0.24100   0.64520   Biso      1.000     H          0.109569  
         H5        1.0000    0.25900   0.59370   0.14520   Biso      1.000     H          0.10956800000000001           
         H6        1.0000    0.75900   0.09370   0.64520   Biso      1.000     H          0.109569  
         H7        1.0000    0.40630   0.25900   0.85480   Biso      1.000     H          0.109569  
         H8        1.0000    0.90630   0.75900   0.35480   Biso      1.000     H          0.10956800000000001           
         H9        1.0000    0.59370   0.74100   0.85480   Biso      1.000     H          0.109569  
         H10       1.0000    0.09370   0.24100   0.35480   Biso      1.000     H          0.10956800000000001           
         H11       1.0000    0.24100   0.90630   0.35480   Biso      1.000     H          0.10956800000000001           
         H12       1.0000    0.25900   0.59370   0.85480   Biso      1.000     H          0.109569  
         H13       1.0000    0.75900   0.09370   0.35480   Biso      1.000     H          0.10956800000000001           
         H14       1.0000    0.59370   0.25900   0.64520   Biso      1.000     H          0.124678  
         H15       1.0000    0.09370   0.75900   0.14520   Biso      1.000     H          0.124677  
         H16       1.0000    0.40630   0.74100   0.64520   Biso      1.000     H          0.124678  
         H17       1.0000    0.90630   0.24100   0.14520   Biso      1.000     H          0.124678  
         H18       1.0000    0.25900   0.40630   0.64520   Biso      1.000     H          0.124677  
         H19       1.0000    0.75900   0.90630   0.14520   Biso      1.000     H          0.124676  
         H20       1.0000    0.74100   0.59370   0.64520   Biso      1.000     H          0.124677  
         H21       1.0000    0.24100   0.09370   0.14520   Biso      1.000     H          0.124677  
         H22       1.0000    0.75900   0.90630   0.85480   Biso      1.000     H          0.124677  
         H23       1.0000    0.25900   0.40630   0.35480   Biso      1.000     H          0.124677  
         H24       1.0000    0.74100   0.40630   0.85480   Biso      1.000     H          0.109569  
         H25       1.0000    0.40630   0.74100   0.35480   Biso      1.000     H          0.124677  
         H26       1.0000    0.24100   0.90630   0.64520   Biso      1.000     H          0.10956700000000001           
         H27       1.0000    0.24100   0.09370   0.85480   Biso      1.000     H          0.124677  
         H28       1.0000    0.74100   0.59370   0.35480   Biso      1.000     H          0.124676  
         H29       1.0000    0.90630   0.24100   0.85480   Biso      1.000     H          0.124678  
         H30       1.0000    0.59370   0.25900   0.35480   Biso      1.000     H          0.124677  
         H31       1.0000    0.09370   0.75900   0.85480   Biso      1.000     H          0.124678  
         H32       1.0000    0.74100   0.40630   0.14520   Biso      1.000     H          0.10956600000000001           
         N1        1.0000    0.84820   0.84820   0.25000   Biso      1.000     N          -0.168215           
         N2        1.0000    0.34820   0.34820   0.75000   Biso      1.000     N          -0.168216           
         N3        1.0000    0.84820   0.15180   0.25000   Biso      1.000     N          -0.168214           
         N4        1.0000    0.34820   0.65180   0.75000   Biso      1.000     N          -0.168216           
         N5        1.0000    0.65180   0.34820   0.75000   Biso      1.000     N          -0.168216           
         N6        1.0000    0.84820   0.84820   0.75000   Biso      1.000     N          -0.168217           
         N7        1.0000    0.34820   0.34820   0.25000   Biso      1.000     N          -0.168216           
         N8        1.0000    0.15180   0.15180   0.75000   Biso      1.000     N          -0.168217           
         N9        1.0000    0.65180   0.65180   0.25000   Biso      1.000     N          -0.168216           
         N10       1.0000    0.15180   0.84820   0.75000   Biso      1.000     N          -0.168217           
         N11       1.0000    0.65180   0.34820   0.25000   Biso      1.000     N          -0.168216           
         N12       1.0000    0.15180   0.84820   0.25000   Biso      1.000     N          -0.168215           
         N13       1.0000    0.65180   0.65180   0.75000   Biso      1.000     N          -0.168216           
         N14       1.0000    0.34820   0.65180   0.25000   Biso      1.000     N          -0.168215           
         N15       1.0000    0.84820   0.15180   0.75000   Biso      1.000     N          -0.168217           
         N16       1.0000    0.15180   0.15180   0.25000   Biso      1.000     N          -0.168214           
         Nb1       1.0000    0.00000   0.00000   0.00000   Biso      1.000     Nb          2.472124  
         Nb2       1.0000    0.50000   0.50000   0.50000   Biso      1.000     Nb          2.472122  
         Nb3       1.0000    0.00000   0.00000   0.50000   Biso      1.000     Nb          2.389709  
         Nb4       1.0000    0.50000   0.50000   0.00000   Biso      1.000     Nb          2.38971   
         Ni1       1.0000    0.00000   0.00000   0.25000   Biso      1.000     Ni          0.680064  
         Ni2       1.0000    0.50000   0.50000   0.75000   Biso      1.000     Ni          0.6800619999999999  
         Ni3       1.0000    0.00000   0.00000   0.75000   Biso      1.000     Ni          0.6800729999999999  
         Ni4       1.0000    0.50000   0.50000   0.25000   Biso      1.000     Ni          0.6800649999999999  
         O1        1.0000    0.00000   0.00000   0.12230   Biso      1.000     O          -1.019527           
         O2        1.0000    0.50000   0.50000   0.37770   Biso      1.000     O          -1.019525           
         O3        1.0000    0.50000   0.50000   0.62230   Biso      1.000     O          -1.019521           
         O4        1.0000    0.00000   0.00000   0.87770   Biso      1.000     O          -1.019528 