
##########################################################################
#               Crystallographic Information Format file
#               Produced by PyCifRW module
#
#  This is a CIF file.  CIF has been adopted by the International
#  Union of Crystallography as the standard for data archiving and
#  transmission.
#
#  For information on this file format, follow the CIF links at
#  http://www.iucr.org
##########################################################################

data_image0

_cell_length_a                          15.42
_cell_length_b                          15.842
_cell_length_c                          17.819
_cell_angle_alpha                       112.763
_cell_angle_beta                        112.203
_cell_angle_gamma                       95.425
_symmetry_space_group_name_H-M          'P 1'
_symmetry_int_tables_number             1
loop_
  _symmetry_equiv_pos_as_xyz
         'x, y, z' 
loop_
  _atom_site_label
  _atom_site_occupancy
  _atom_site_fract_x
  _atom_site_fract_y
  _atom_site_fract_z
  _atom_site_thermal_displace_type
  _atom_site_B_iso_or_equiv
  _atom_site_type_symbol
  _atom_site_charge
         C1        1.0000    0.66520   0.72570   0.65580   Biso      1.000     C          -0.086358           
         C2        1.0000    0.59430   0.65280   0.16460   Biso      1.000     C          -0.059289           
         C3        1.0000    0.64580   0.28320   0.30600   Biso      1.000     C          -0.073121           
         C4        1.0000    0.73950   0.78630   0.65910   Biso      1.000     C          -0.067682           
         C5        1.0000    0.15910   0.11700   0.68040   Biso      1.000     C          -0.069606           
         C6        1.0000    0.33220   0.17350   0.55900   Biso      1.000     C          -0.064549           
         C7        1.0000    0.48340   0.51680   0.79620   Biso      1.000     C          -0.057715           
         C8        1.0000    0.33380   0.07580   0.49810   Biso      1.000     C          0.073781  
         C9        1.0000    0.39300   0.45410   0.75800   Biso      1.000     C          -0.067858           
         C10       1.0000    0.68040   0.26350   0.18130   Biso      1.000     C          0.270176  
         C11       1.0000    0.73200   0.13160   0.10890   Biso      1.000     C          -0.060258           
         C12       1.0000    0.37690   0.07970   0.43630   Biso      1.000     C          -0.06351  
         C13       1.0000    0.12460   0.01970   0.61740   Biso      1.000     C          -0.262912           
         C14       1.0000    0.78620   0.12400   0.99220   Biso      1.000     C          0.607928  
         C15       1.0000    0.74720   0.17160   0.05400   Biso      1.000     C          -0.068381           
         C16       1.0000    0.50290   0.61910   0.86270   Biso      1.000     C          0.61698   
         C17       1.0000    0.40240   0.96520   0.31560   Biso      1.000     C          0.281776  
         C18       1.0000    0.22580   0.01290   0.43740   Biso      1.000     C          -0.069855           
         C19       1.0000    0.14450   0.51620   0.79180   Biso      1.000     C          0.586446  
         C20       1.0000    0.40270   0.87240   0.26980   Biso      1.000     C          -0.214625           
         C21       1.0000    0.39060   0.02840   0.55380   Biso      1.000     C          -0.072384           
         C22       1.0000    0.39430   0.97850   0.66270   Biso      1.000     C          0.264431  
         C23       1.0000    0.66630   0.59450   0.53400   Biso      1.000     C          0.280609  
         C24       1.0000    0.08550   0.00280   0.31240   Biso      1.000     C          0.28691   
         C25       1.0000    0.83720   0.24770   0.65550   Biso      1.000     C          -0.080667           
         C26       1.0000    0.67230   0.20580   0.62590   Biso      1.000     C          -0.058687           
         C27       1.0000    0.68900   0.68110   0.23570   Biso      1.000     C          -0.239714           
         C28       1.0000    0.19690   0.60820   0.72090   Biso      1.000     C          -0.100293           
         C29       1.0000    0.81330   0.28340   0.59440   Biso      1.000     C          -0.207153           
         C30       1.0000    0.66230   0.44950   0.41560   Biso      1.000     C          -0.066999           
         C31       1.0000    0.65520   0.52860   0.23200   Biso      1.000     C          -0.238586           
         C32       1.0000    0.07740   0.63520   0.60680   Biso      1.000     C          0.27744   
         C33       1.0000    0.04460   0.82280   0.49680   Biso      1.000     C          -0.066774           
         C34       1.0000    0.12130   0.55450   0.72530   Biso      1.000     C          -0.081557           
         C35       1.0000    0.76580   0.20790   0.67280   Biso      1.000     C          -0.072739           
         C36       1.0000    0.96860   0.67050   0.49170   Biso      1.000     C          -0.072112           
         C37       1.0000    0.62990   0.63370   0.59710   Biso      1.000     C          -0.199027           
         C38       1.0000    0.56040   0.50510   0.16420   Biso      1.000     C          -0.087299           
         C39       1.0000    0.60190   0.30820   0.43070   Biso      1.000     C          -0.064524           
         C40       1.0000    0.71790   0.28150   0.54810   Biso      1.000     C          0.281898  
         C41       1.0000    0.00500   0.00300   0.67080   Biso      1.000     C          -0.206828           
         C42       1.0000    0.52970   0.56640   0.13090   Biso      1.000     C          -0.060351           
         C43       1.0000    0.49900   0.34180   0.30250   Biso      1.000     C          -0.072986           
         C44       1.0000    0.97800   0.71990   0.43410   Biso      1.000     C          0.074942  
         C45       1.0000    0.60230   0.34560   0.36380   Biso      1.000     C          0.075777  
         C46       1.0000    0.87920   0.72490   0.37570   Biso      1.000     C          -0.066377           
         C47       1.0000    0.17550   0.64760   0.66230   Biso      1.000     C          -0.200562           
         C48       1.0000    0.64510   0.24480   0.56480   Biso      1.000     C          -0.260241           
         C49       1.0000    0.79130   0.16340   0.73330   Biso      1.000     C          0.574818  
         C50       1.0000    0.73700   0.65170   0.53420   Biso      1.000     C          -0.243669           
         C51       1.0000    0.44270   0.32950   0.67010   Biso      1.000     C          0.271454  
         C52       1.0000    0.15380   0.17560   0.05920   Biso      1.000     C          -0.058908           
         C53       1.0000    0.11730   0.15710   0.73550   Biso      1.000     C          -0.062422           
         C54       1.0000    0.13860   0.56870   0.13740   Biso      1.000     C          -0.078219           
         C55       1.0000    0.34950   0.96350   0.71330   Biso      1.000     C          -0.218041           
         C56       1.0000    0.48550   0.91410   0.78810   Biso      1.000     C          -0.060565           
         C57       1.0000    0.71850   0.61830   0.26640   Biso      1.000     C          0.270989  
         C58       1.0000    0.39310   0.92840   0.77390   Biso      1.000     C          -0.080128           
         C59       1.0000    0.02280   0.66140   0.37690   Biso      1.000     C          -0.070657           
         C60       1.0000    0.02530   0.54120   0.66510   Biso      1.000     C          -0.060802           
         C61       1.0000    0.21400   0.26810   0.10340   Biso      1.000     C          -0.063244           
         C62       1.0000    0.09010   0.56870   0.25230   Biso      1.000     C          -0.243008           
         C63       1.0000    0.53320   0.39250   0.71040   Biso      1.000     C          -0.227024           
         C64       1.0000    0.69190   0.30120   0.12610   Biso      1.000     C          -0.218257           
         C65       1.0000    0.11060   0.52070   0.17880   Biso      1.000     C          -0.080036           
         C66       1.0000    0.08630   0.66280   0.27430   Biso      1.000     C          0.279343  
         C67       1.0000    0.11870   0.71040   0.23730   Biso      1.000     C          -0.227091           
         C68       1.0000    0.05480   0.15220   0.98310   Biso      1.000     C          0.61511   
         C69       1.0000    0.04210   0.09760   0.73290   Biso      1.000     C          -0.063382           
         C70       1.0000    0.28560   0.13400   0.14940   Biso      1.000     C          -0.232855           
         C71       1.0000    0.19200   0.11290   0.08490   Biso      1.000     C          -0.075434           
         C72       1.0000    0.14860   0.66300   0.17210   Biso      1.000     C          -0.07218  
         C73       1.0000    0.55310   0.48760   0.77050   Biso      1.000     C          -0.080433           
         C74       1.0000    0.77380   0.74730   0.59570   Biso      1.000     C          -0.063612           
         C75       1.0000    0.95230   0.99300   0.18070   Biso      1.000     C          -0.087445           
         C76       1.0000    0.34530   0.22990   0.19410   Biso      1.000     C          0.271652  
         C77       1.0000    0.89090   0.92070   0.17830   Biso      1.000     C          -0.072353           
         C78       1.0000    0.15430   0.25900   0.79850   Biso      1.000     C          0.60274   
         C79       1.0000    0.16310   0.51630   0.05960   Biso      1.000     C          0.606709  
         C80       1.0000    0.47770   0.91560   0.18850   Biso      1.000     C          -0.067728           
         C81       1.0000    0.47800   0.00730   0.23450   Biso      1.000     C          -0.065759           
         C82       1.0000    0.42720   0.53860   0.05590   Biso      1.000     C          0.629663  
         C83       1.0000    0.36950   0.35830   0.69180   Biso      1.000     C          -0.239472           
         C84       1.0000    0.93020   0.88910   0.24390   Biso      1.000     C          -0.064047           
         C85       1.0000    0.69830   0.17800   0.17010   Biso      1.000     C          -0.225974           
         C86       1.0000    0.48270   0.96000   0.67450   Biso      1.000     C          -0.239583           
         C87       1.0000    0.02880   0.92740   0.30660   Biso      1.000     C          -0.245971           
         C88       1.0000    0.43680   0.84530   0.20410   Biso      1.000     C          -0.101242           
         C89       1.0000    0.51770   0.88730   0.12230   Biso      1.000     C          0.568568  
         C90       1.0000    0.04790   0.03680   0.25090   Biso      1.000     C          -0.210304           
         C91       1.0000    0.53380   0.87580   0.85400   Biso      1.000     C          0.612791  
         C92       1.0000    0.78290   0.88720   0.72900   Biso      1.000     C          0.578815  
         C93       1.0000    0.30700   0.29550   0.17090   Biso      1.000     C          -0.245385           
         C94       1.0000    0.72490   0.25620   0.06330   Biso      1.000     C          -0.067613           
         C95       1.0000    0.00250   0.58200   0.60810   Biso      1.000     C          -0.237364           
         C96       1.0000    0.44190   0.03340   0.29690   Biso      1.000     C          -0.24264  
         C97       1.0000    0.78810   0.88070   0.11350   Biso      1.000     C          0.589854  
         C98       1.0000    0.52770   0.93030   0.74080   Biso      1.000     C          -0.059078           
         C99       1.0000    0.04740   0.96280   0.61420   Biso      1.000     C          0.275934  
         Cd1       1.0000    0.35304   0.68624   0.95877   Biso      1.000     Cd          1.135127  
         Cd2       1.0000    0.22823   0.44949   0.92367   Biso      1.000     Cd          0.995521  
         Cd3       1.0000    0.59262   0.81935   0.99859   Biso      1.000     Cd          0.985331  
         Cd4       1.0000    0.00319   0.31406   0.90686   Biso      1.000     Cd          1.129525  
         Cd5       1.0000    0.85277   0.07800   0.84865   Biso      1.000     Cd          0.991101  
         Cd6       1.0000    0.77394   0.89512   0.92181   Biso      1.000     Cd          1.150342  
         H1        1.0000    0.15140   0.04960   0.05630   Biso      1.000     H          0.105502  
         H2        1.0000    0.85700   0.77210   0.41440   Biso      1.000     H          0.096734  
         H3        1.0000    0.22640   0.68280   0.65920   Biso      1.000     H          0.142895  
         H4        1.0000    0.62290   0.17660   0.63480   Biso      1.000     H          0.108537  
         H5        1.0000    0.57970   0.24620   0.53590   Biso      1.000     H          0.123865  
         H6        1.0000    0.90330   0.24970   0.68700   Biso      1.000     H          0.110716  
         H7        1.0000    0.57450   0.69470   0.13920   Biso      1.000     H          0.115872  
         H8        1.0000    0.71300   0.28700   0.34580   Biso      1.000     H          0.094086  
         H9        1.0000    0.60600   0.21580   0.27320   Biso      1.000     H          0.096732  
         H10       1.0000    0.88370   0.74490   0.33080   Biso      1.000     H          0.093432  
         H11       1.0000    0.21320   0.15610   0.68480   Biso      1.000     H          0.109573  
         H12       1.0000    0.30650   0.16850   0.60080   Biso      1.000     H          0.098612  
         H13       1.0000    0.28880   0.19890   0.52130   Biso      1.000     H          0.095051  
         H14       1.0000    0.34540   0.47540   0.77630   Biso      1.000     H          0.117032  
         H15       1.0000    0.63880   0.75120   0.69730   Biso      1.000     H          0.11084   
         H16       1.0000    0.73130   0.74300   0.26140   Biso      1.000     H          0.129237  
         H17       1.0000    0.73170   0.45580   0.45190   Biso      1.000     H          0.094751  
         H18       1.0000    0.86260   0.30970   0.58360   Biso      1.000     H          0.137183  
         H19       1.0000    0.50090   0.36400   0.25820   Biso      1.000     H          0.102364  
         H20       1.0000    0.47240   0.38420   0.34010   Biso      1.000     H          0.096197  
         H21       1.0000    0.95020   0.96480   0.66630   Biso      1.000     H          0.139355  
         H22       1.0000    0.56410   0.24010   0.39700   Biso      1.000     H          0.088342  
         H23       1.0000    0.57110   0.34450   0.46740   Biso      1.000     H          0.095046  
         H24       1.0000    0.51640   0.44480   0.14080   Biso      1.000     H          0.115069  
         H25       1.0000    0.17740   0.69870   0.15090   Biso      1.000     H          0.108153  
         H26       1.0000    0.58000   0.59440   0.59770   Biso      1.000     H          0.134772  
         H27       1.0000    0.93330   0.70090   0.52620   Biso      1.000     H          0.096837  
         H28       1.0000    0.04380   0.85710   0.46050   Biso      1.000     H          0.085523  
         H29       1.0000    0.11260   0.82270   0.52980   Biso      1.000     H          0.096849  
         H30       1.0000    0.67630   0.48480   0.25430   Biso      1.000     H          0.118615  
         H31       1.0000    0.65820   0.47620   0.37290   Biso      1.000     H          0.0931    
         H32       1.0000    0.74530   0.07260   0.10310   Biso      1.000     H          0.115337  
         H33       1.0000    0.93270   0.60200   0.45180   Biso      1.000     H          0.091603  
         H34       1.0000    0.44730   0.11470   0.47240   Biso      1.000     H          0.094294  
         H35       1.0000    0.26320   0.61680   0.75910   Biso      1.000     H          0.109668  
         H36       1.0000    0.15320   0.99350   0.57800   Biso      1.000     H          0.114581  
         H37       1.0000    0.92920   0.01280   0.13450   Biso      1.000     H          0.112856  
         H38       1.0000    0.61390   0.53180   0.79340   Biso      1.000     H          0.115797  
         H39       1.0000    0.28920   0.97750   0.70610   Biso      1.000     H          0.12628   
         H40       1.0000    0.36100   0.91420   0.80550   Biso      1.000     H          0.118028  
         H41       1.0000    0.97480   0.59890   0.32980   Biso      1.000     H          0.094668  
         H42       1.0000    0.08060   0.64960   0.41610   Biso      1.000     H          0.094061  
         H43       1.0000    0.97370   0.50200   0.66400   Biso      1.000     H          0.113169  
         H44       1.0000    0.18960   0.31400   0.08600   Biso      1.000     H          0.111892  
         H45       1.0000    0.07920   0.53820   0.28580   Biso      1.000     H          0.131992  
         H46       1.0000    0.58330   0.37060   0.69690   Biso      1.000     H          0.125786  
         H47       1.0000    0.67660   0.35930   0.13170   Biso      1.000     H          0.126552  
         H48       1.0000    0.10530   0.45450   0.15740   Biso      1.000     H          0.115957  
         H49       1.0000    0.12110   0.77580   0.25570   Biso      1.000     H          0.129379  
         H50       1.0000    0.01640   0.12320   0.77500   Biso      1.000     H          0.108472  
         H51       1.0000    0.34360   0.11280   0.40180   Biso      1.000     H          0.098922  
         H52       1.0000    0.59060   0.92150   0.75210   Biso      1.000     H          0.111337  
         H53       1.0000    0.44360   0.09820   0.32760   Biso      1.000     H          0.11494   
         H54       1.0000    0.30980   0.08660   0.16390   Biso      1.000     H          0.128051  
         H55       1.0000    0.73220   0.28360   0.02640   Biso      1.000     H          0.121407  
         H56       1.0000    0.93630   0.57390   0.57010   Biso      1.000     H          0.124051  
         H57       1.0000    0.22310   0.94560   0.40290   Biso      1.000     H          0.093894  
         H58       1.0000    0.37880   0.82540   0.28330   Biso      1.000     H          0.132484  
         H59       1.0000    0.45870   0.06910   0.59470   Biso      1.000     H          0.096198  
         H60       1.0000    0.39220   0.96600   0.51200   Biso      1.000     H          0.090919  
         H61       1.0000    0.76190   0.62580   0.49150   Biso      1.000     H          0.120042  
         H62       1.0000    0.82310   0.78670   0.59450   Biso      1.000     H          0.11537   
         H63       1.0000    0.50420   0.05490   0.22280   Biso      1.000     H          0.111076  
         H64       1.0000    0.19230   0.01560   0.47560   Biso      1.000     H          0.087853  
         H65       1.0000    0.88980   0.84160   0.24570   Biso      1.000     H          0.114187  
         H66       1.0000    0.68730   0.15000   0.20540   Biso      1.000     H          0.125386  
         H67       1.0000    0.51250   0.96720   0.63860   Biso      1.000     H          0.130096  
         H68       1.0000    0.05670   0.90020   0.34590   Biso      1.000     H          0.114359  
         H69       1.0000    0.43230   0.78030   0.17060   Biso      1.000     H          0.11394   
         H70       1.0000    0.08700   0.09060   0.25580   Biso      1.000     H          0.136796  
         H71       1.0000    0.30610   0.31570   0.66340   Biso      1.000     H          0.130369  
         H72       1.0000    0.34510   0.36020   0.20160   Biso      1.000     H          0.127496  
         O1        1.0000    0.75410   0.90050   0.04660   Biso      1.000     O          -0.615315           
         O2        1.0000    0.61070   0.85480   0.85950   Biso      1.000     O          -0.625284           
         O3        1.0000    0.73190   0.82780   0.12280   Biso      1.000     O          -0.500477           
         O4        1.0000    0.58960   0.67330   0.90590   Biso      1.000     O          -0.570673           
         O5        1.0000    0.79410   0.16130   0.93880   Biso      1.000     O          -0.585411           
         O6        1.0000    0.37550   0.45790   0.02490   Biso      1.000     O          -0.534541           
         O7        1.0000    0.01940   0.21390   0.96950   Biso      1.000     O          -0.609753           
         O8        1.0000    0.36350   0.98210   0.37430   Biso      1.000     O          -0.196495           
         O9        1.0000    0.64710   0.31570   0.24220   Biso      1.000     O          -0.202476           
         O10       1.0000    0.42970   0.23690   0.61090   Biso      1.000     O          -0.211858           
         O11       1.0000    0.34640   0.01500   0.60550   Biso      1.000     O          -0.192978           
         O12       1.0000    0.08290   0.45900   0.78970   Biso      1.000     O          -0.52032  
         O13       1.0000    0.18080   0.04980   0.37710   Biso      1.000     O          -0.200571           
         O14       1.0000    0.23440   0.54390   0.85410   Biso      1.000     O          -0.615122           
         O15       1.0000    0.49510   0.86780   0.90420   Biso      1.000     O          -0.566759           
         O16       1.0000    0.00010   0.06550   0.93830   Biso      1.000     O          -0.592548           
         O17       1.0000    0.22510   0.31120   0.80500   Biso      1.000     O          -0.515383           
         O18       1.0000    0.11420   0.29820   0.85130   Biso      1.000     O          -0.648216           
         O19       1.0000    0.81490   0.05380   0.99070   Biso      1.000     O          -0.604578           
         O20       1.0000    0.19570   0.55810   0.02900   Biso      1.000     O          -0.517857           
         O21       1.0000    0.88170   0.18050   0.78980   Biso      1.000     O          -0.608052           
         O22       1.0000    0.72580   0.10900   0.73370   Biso      1.000     O          -0.500522           
         O23       1.0000    0.69960   0.31900   0.48830   Biso      1.000     O          -0.20015  
         O24       1.0000    0.81190   0.63260   0.32970   Biso      1.000     O          -0.218125           
         O25       1.0000    0.43740   0.24480   0.25460   Biso      1.000     O          -0.193699           
         O26       1.0000    0.06610   0.68150   0.55260   Biso      1.000     O          -0.205001           
         O27       1.0000    0.00830   0.86690   0.55850   Biso      1.000     O          -0.190224           
         O28       1.0000    0.62150   0.49830   0.47410   Biso      1.000     O          -0.207345           
         O29       1.0000    0.14390   0.42610   0.02750   Biso      1.000     O          -0.620072           
         O30       1.0000    0.39920   0.59950   0.03310   Biso      1.000     O          -0.638025           
         O31       1.0000    0.57240   0.95070   0.12090   Biso      1.000     O          -0.504059           
         O32       1.0000    0.43470   0.64780   0.87470   Biso      1.000     O          -0.625446           
         O33       1.0000    0.49870   0.79890   0.06770   Biso      1.000     O          -0.590169           
         O34       1.0000    0.83740   0.94410   0.72140   Biso      1.000     O          -0.494055           
         O35       1.0000    0.76320   0.91850   0.79770   Biso      1.000     O          -0.613483           
         O36       1.0000    0.05100   0.71070   0.33410   Biso      1.000     O          -0.206356 