
##########################################################################
#               Crystallographic Information Format file
#               Produced by PyCifRW module
#
#  This is a CIF file.  CIF has been adopted by the International
#  Union of Crystallography as the standard for data archiving and
#  transmission.
#
#  For information on this file format, follow the CIF links at
#  http://www.iucr.org
##########################################################################

data_image0

_cell_length_a                          13.346
_cell_length_b                          16.1864
_cell_length_c                          17.7807
_cell_angle_alpha                       112.598
_cell_angle_beta                        107.375
_cell_angle_gamma                       97.625
_symmetry_space_group_name_H-M          'P 1'
_symmetry_int_tables_number             1
loop_
  _symmetry_equiv_pos_as_xyz
         'x, y, z' 
loop_
  _atom_site_label
  _atom_site_occupancy
  _atom_site_fract_x
  _atom_site_fract_y
  _atom_site_fract_z
  _atom_site_thermal_displace_type
  _atom_site_B_iso_or_equiv
  _atom_site_type_symbol
  _atom_site_charge
         C1        1.0000    0.32260   0.88000   0.60530   Biso      1.000     C          -0.054375           
         C2        1.0000    0.21800   0.82170   0.57200   Biso      1.000     C          -0.080649           
         C3        1.0000    0.19290   0.72360   0.51230   Biso      1.000     C          0.572575  
         C4        1.0000    0.35180   0.37170   0.04330   Biso      1.000     C          0.26966599999999996           
         C5        1.0000    0.18850   0.39930   0.62070   Biso      1.000     C          -0.074522           
         C6        1.0000    0.36030   0.49430   0.17550   Biso      1.000     C          -0.079016           
         C7        1.0000    0.23940   0.41770   0.57020   Biso      1.000     C          -0.07979299999999999          
         C8        1.0000    0.19120   0.46210   0.51350   Biso      1.000     C          0.561453  
         C9        1.0000    0.85600   0.42270   0.18100   Biso      1.000     C          -0.061647           
         C10       1.0000    0.40730   0.15990   0.78710   Biso      1.000     C          -0.073656           
         C11       1.0000    0.24010   0.34280   0.11950   Biso      1.000     C          -0.0711   
         C12       1.0000    0.67290   0.32700   0.02440   Biso      1.000     C          0.28897   
         C13       1.0000    0.24440   0.46950   0.25680   Biso      1.000     C          0.577878  
         C14       1.0000    0.33580   0.34520   0.68310   Biso      1.000     C          0.275024  
         C15       1.0000    0.27780   0.43890   0.18300   Biso      1.000     C          -0.048227           
         C16       1.0000    0.27480   0.01160   0.68980   Biso      1.000     C          0.289519  
         C17       1.0000    0.40910   0.25700   0.84780   Biso      1.000     C          0.07739   
         C18       1.0000    0.27270   0.31140   0.05020   Biso      1.000     C          -0.26557600000000003          
         C19       1.0000    0.38660   0.36220   0.63050   Biso      1.000     C          -0.207443           
         C20       1.0000    0.39400   0.46540   0.10840   Biso      1.000     C          -0.24504499999999999          
         C21       1.0000    0.53040   0.31550   0.89510   Biso      1.000     C          -0.067023           
         C22       1.0000    0.16640   0.95760   0.65690   Biso      1.000     C          -0.226956           
         C23       1.0000    0.34250   0.30040   0.79530   Biso      1.000     C          -0.076938           
         C24       1.0000    0.80410   0.33060   0.15270   Biso      1.000     C          -0.085601           
         C25       1.0000    0.23490   0.36350   0.67760   Biso      1.000     C          -0.243338           
         C26       1.0000    0.71150   0.28210   0.07390   Biso      1.000     C          -0.227212           
         C27       1.0000    0.35260   0.97500   0.66490   Biso      1.000     C          -0.252459           
         C28       1.0000    0.14110   0.86180   0.59930   Biso      1.000     C          -0.101049           
         C29       1.0000    0.72250   0.42040   0.05120   Biso      1.000     C          -0.231055           
         C30       1.0000    0.81440   0.46700   0.13010   Biso      1.000     C          -0.06475299999999999          
         C31       1.0000    0.95520   0.47320   0.26180   Biso      1.000     C          0.600841  
         C32       1.0000    0.61340   0.63780   0.36950   Biso      1.000     C          -0.207443           
         C33       1.0000    0.60600   0.53460   0.89160   Biso      1.000     C          -0.245074           
         C34       1.0000    0.46960   0.68450   0.10490   Biso      1.000     C          -0.067023           
         C35       1.0000    0.04480   0.52680   0.73820   Biso      1.000     C          0.600841  
         C36       1.0000    0.78200   0.17830   0.42800   Biso      1.000     C          -0.080651           
         C37       1.0000    0.80710   0.27640   0.48770   Biso      1.000     C          0.572575  
         C38       1.0000    0.64820   0.62830   0.95670   Biso      1.000     C          0.269669  
         C39       1.0000    0.81150   0.60070   0.37930   Biso      1.000     C          -0.074522           
         C40       1.0000    0.63970   0.50570   0.82450   Biso      1.000     C          -0.078987           
         C41       1.0000    0.76060   0.58230   0.42980   Biso      1.000     C          -0.07979299999999999          
         C42       1.0000    0.80880   0.53790   0.48650   Biso      1.000     C          0.561453  
         C43       1.0000    0.14400   0.57730   0.81900   Biso      1.000     C          -0.061647           
         C44       1.0000    0.59270   0.84010   0.21290   Biso      1.000     C          -0.073656           
         C45       1.0000    0.75990   0.65720   0.88050   Biso      1.000     C          -0.0711   
         C46       1.0000    0.32710   0.67300   0.97560   Biso      1.000     C          0.28897   
         C47       1.0000    0.75560   0.53050   0.74320   Biso      1.000     C          0.577878  
         C48       1.0000    0.66420   0.65480   0.31690   Biso      1.000     C          0.275024  
         C49       1.0000    0.36130   0.25490   0.91390   Biso      1.000     C          -0.06791  
         C50       1.0000    0.67740   0.12000   0.39470   Biso      1.000     C          -0.054374           
         C51       1.0000    0.72520   0.98840   0.31020   Biso      1.000     C          0.289519  
         C52       1.0000    0.59090   0.74300   0.15220   Biso      1.000     C          0.07739   
         C53       1.0000    0.72730   0.68860   0.94980   Biso      1.000     C          -0.26557600000000003          
         C54       1.0000    0.66160   0.60150   0.42460   Biso      1.000     C          -0.054863999999999996         
         C55       1.0000    0.63870   0.74510   0.08610   Biso      1.000     C          -0.067911           
         C56       1.0000    0.18560   0.53300   0.86990   Biso      1.000     C          -0.06475299999999999          
         C57       1.0000    0.27750   0.57960   0.94880   Biso      1.000     C          -0.231055           
         C58       1.0000    0.85890   0.13820   0.40070   Biso      1.000     C          -0.101048           
         C59       1.0000    0.64740   0.02500   0.33510   Biso      1.000     C          -0.25246  
         C60       1.0000    0.28850   0.71790   0.92610   Biso      1.000     C          -0.227212           
         C61       1.0000    0.76510   0.63650   0.32240   Biso      1.000     C          -0.243338           
         C62       1.0000    0.19590   0.66940   0.84730   Biso      1.000     C          -0.085601           
         C63       1.0000    0.65750   0.69960   0.20470   Biso      1.000     C          -0.076938           
         C64       1.0000    0.83360   0.04240   0.34310   Biso      1.000     C          -0.226956           
         C65       1.0000    0.72220   0.56110   0.81700   Biso      1.000     C          -0.04823  
         C66       1.0000    0.33840   0.39850   0.57540   Biso      1.000     C          -0.054863999999999996         
         Cd1       1.0000    0.06721   0.61608   0.59303   Biso      1.000     Cd          1.091145  
         Cd2       1.0000    0.16268   0.54385   0.38386   Biso      1.000     Cd          0.986828  
         Cd3       1.0000    0.93279   0.38392   0.40697   Biso      1.000     Cd          1.091145  
         Cd4       1.0000    0.83732   0.45615   0.61614   Biso      1.000     Cd          0.986828  
         H1        1.0000    0.60550   0.44370   0.77910   Biso      1.000     H          0.10289000000000001           
         H2        1.0000    0.19120   0.29980   0.12570   Biso      1.000     H          0.11614100000000001           
         H3        1.0000    0.37650   0.85480   0.58710   Biso      1.000     H          0.12007000000000001           
         H4        1.0000    0.24180   0.24850   0.00640   Biso      1.000     H          0.121223  
         H5        1.0000    0.37390   0.41080   0.54020   Biso      1.000     H          0.126691  
         H6        1.0000    0.28080   0.22820   0.88500   Biso      1.000     H          0.09868099999999999           
         H7        1.0000    0.39230   0.21650   0.94160   Biso      1.000     H          0.100477  
         H8        1.0000    0.84960   0.53060   0.14960   Biso      1.000     H          0.11589300000000001           
         H9        1.0000    0.69480   0.45140   0.01720   Biso      1.000     H          0.130477  
         H10       1.0000    0.06890   0.82330   0.57840   Biso      1.000     H          0.105794  
         H11       1.0000    0.88020   0.58870   0.38350   Biso      1.000     H          0.111679  
         H12       1.0000    0.19880   0.35150   0.71250   Biso      1.000     H          0.127397  
         H13       1.0000    0.45480   0.13400   0.82120   Biso      1.000     H          0.098429  
         H14       1.0000    0.83130   0.29960   0.18680   Biso      1.000     H          0.099009  
         H15       1.0000    0.26660   0.25950   0.76070   Biso      1.000     H          0.093827  
         H16       1.0000    0.34020   0.36160   0.83610   Biso      1.000     H          0.094842  
         H17       1.0000    0.11210   0.98430   0.67270   Biso      1.000     H          0.145466  
         H18       1.0000    0.56320   0.31390   0.85160   Biso      1.000     H          0.10593699999999999           
         H19       1.0000    0.53700   0.38110   0.93280   Biso      1.000     H          0.092356  
         H20       1.0000    0.44630   0.50790   0.10460   Biso      1.000     H          0.116869  
         H21       1.0000    0.45430   0.34870   0.63270   Biso      1.000     H          0.145726  
         H22       1.0000    0.67580   0.21870   0.05490   Biso      1.000     H          0.135122  
         H23       1.0000    0.43440   0.16210   0.74160   Biso      1.000     H          0.10378399999999999           
         H24       1.0000    0.42540   0.01290   0.68730   Biso      1.000     H          0.134456  
         H25       1.0000    0.11980   0.41130   0.61650   Biso      1.000     H          0.111679  
         H26       1.0000    0.39450   0.55630   0.22090   Biso      1.000     H          0.10289200000000001           
         H27       1.0000    0.54520   0.86600   0.17880   Biso      1.000     H          0.098429  
         H28       1.0000    0.80880   0.70020   0.87430   Biso      1.000     H          0.11614100000000001           
         H29       1.0000    0.62350   0.14520   0.41290   Biso      1.000     H          0.12007000000000001           
         H30       1.0000    0.75820   0.75150   0.99360   Biso      1.000     H          0.121223  
         H31       1.0000    0.62610   0.58920   0.45980   Biso      1.000     H          0.126691  
         H32       1.0000    0.71920   0.77180   0.11500   Biso      1.000     H          0.09868099999999999           
         H33       1.0000    0.60770   0.78350   0.05840   Biso      1.000     H          0.100477  
         H34       1.0000    0.15040   0.46940   0.85040   Biso      1.000     H          0.11589300000000001           
         H35       1.0000    0.30520   0.54860   0.98280   Biso      1.000     H          0.130477  
         H36       1.0000    0.93110   0.17670   0.42160   Biso      1.000     H          0.105794  
         H37       1.0000    0.56560   0.83790   0.25840   Biso      1.000     H          0.10378399999999999           
         H38       1.0000    0.32420   0.78130   0.94510   Biso      1.000     H          0.135122  
         H39       1.0000    0.57460   0.98710   0.31270   Biso      1.000     H          0.134456  
         H40       1.0000    0.55370   0.49210   0.89540   Biso      1.000     H          0.116871  
         H41       1.0000    0.46300   0.61890   0.06720   Biso      1.000     H          0.092356  
         H42       1.0000    0.43680   0.68610   0.14840   Biso      1.000     H          0.10593699999999999           
         H43       1.0000    0.54570   0.65130   0.36730   Biso      1.000     H          0.145726  
         H44       1.0000    0.65980   0.63840   0.16390   Biso      1.000     H          0.094842  
         H45       1.0000    0.73340   0.74050   0.23930   Biso      1.000     H          0.093827  
         H46       1.0000    0.16870   0.70040   0.81320   Biso      1.000     H          0.099009  
         H47       1.0000    0.80120   0.64850   0.28750   Biso      1.000     H          0.127397  
         H48       1.0000    0.88790   0.01570   0.32730   Biso      1.000     H          0.145466  
         O1        1.0000    0.89750   0.33360   0.50210   Biso      1.000     O          -0.6167520000000001           
         O2        1.0000    0.70520   0.89800   0.25410   Biso      1.000     O          -0.200881           
         O3        1.0000    0.83120   0.58420   0.74130   Biso      1.000     O          -0.6037710000000001           
         O4        1.0000    0.60920   0.68820   0.26200   Biso      1.000     O          -0.184425           
         O5        1.0000    0.02220   0.56150   0.68210   Biso      1.000     O          -0.6340399999999999           
         O6        1.0000    0.61000   0.64890   0.02040   Biso      1.000     O          -0.196469           
         O7        1.0000    0.90200   0.51970   0.48700   Biso      1.000     O          -0.648616           
         O8        1.0000    0.75800   0.51900   0.52960   Biso      1.000     O          -0.472864           
         O9        1.0000    0.41600   0.72640   0.05250   Biso      1.000     O          -0.21112899999999998          
         O10       1.0000    0.98350   0.45300   0.72400   Biso      1.000     O          -0.48192799999999997          
         O11       1.0000    0.28640   0.55240   0.31460   Biso      1.000     O          -0.584342           
         O12       1.0000    0.97780   0.43850   0.31790   Biso      1.000     O          -0.6340399999999999           
         O13       1.0000    0.10250   0.66640   0.49790   Biso      1.000     O          -0.6167520000000001           
         O14       1.0000    0.16880   0.41580   0.25870   Biso      1.000     O          -0.603772           
         O15       1.0000    0.39080   0.31180   0.73800   Biso      1.000     O          -0.184425           
         O16       1.0000    0.39000   0.35110   0.97960   Biso      1.000     O          -0.196469           
         O17       1.0000    0.09800   0.48030   0.51300   Biso      1.000     O          -0.648616           
         O18       1.0000    0.24200   0.48100   0.47040   Biso      1.000     O          -0.472864           
         O19       1.0000    0.58400   0.27360   0.94750   Biso      1.000     O          -0.21112899999999998          
         O20       1.0000    0.01650   0.54700   0.27600   Biso      1.000     O          -0.48192799999999997          
         O21       1.0000    0.29480   0.10200   0.74590   Biso      1.000     O          -0.200881           
         O22       1.0000    0.74710   0.30550   0.52690   Biso      1.000     O          -0.4591   
         O23       1.0000    0.25290   0.69450   0.47310   Biso      1.000     O          -0.4591   
         O24       1.0000    0.71360   0.44760   0.68540   Biso      1.000     O          -0.5843430000000001 