
##########################################################################
#               Crystallographic Information Format file
#               Produced by PyCifRW module
#
#  This is a CIF file.  CIF has been adopted by the International
#  Union of Crystallography as the standard for data archiving and
#  transmission.
#
#  For information on this file format, follow the CIF links at
#  http://www.iucr.org
##########################################################################

data_image0

_cell_length_a                          7.08
_cell_length_b                          17.3265
_cell_length_c                          20.7867
_cell_angle_alpha                       90
_cell_angle_beta                        99.2752
_cell_angle_gamma                       90
_symmetry_space_group_name_H-M          'P 1'
_symmetry_int_tables_number             1
loop_
  _symmetry_equiv_pos_as_xyz
         'x, y, z' 
loop_
  _atom_site_label
  _atom_site_occupancy
  _atom_site_fract_x
  _atom_site_fract_y
  _atom_site_fract_z
  _atom_site_thermal_displace_type
  _atom_site_B_iso_or_equiv
  _atom_site_type_symbol
  _atom_site_charge
         Bi1       1.0000    0.69453   0.76993   0.36538   Biso      1.000     Bi          1.276528  
         Bi2       1.0000    0.80547   0.26993   0.13462   Biso      1.000     Bi          1.276528  
         Bi3       1.0000    0.30547   0.23007   0.63462   Biso      1.000     Bi          1.276528  
         Bi4       1.0000    0.19453   0.73007   0.86538   Biso      1.000     Bi          1.276528  
         C1        1.0000    0.87620   0.21780   0.81960   Biso      1.000     C          -0.089335           
         C2        1.0000    0.62670   0.02950   0.70660   Biso      1.000     C          -0.021095           
         C3        1.0000    0.49020   0.08920   0.67480   Biso      1.000     C          0.579209  
         C4        1.0000    0.88980   0.22750   0.00250   Biso      1.000     C          0.59086   
         C5        1.0000    0.95410   0.22300   0.93700   Biso      1.000     C          0.000204  
         C6        1.0000    0.14820   0.22600   0.93220   Biso      1.000     C          -0.126554           
         C7        1.0000    0.81900   0.21740   0.88030   Biso      1.000     C          -0.1074   
         C8        1.0000    0.18100   0.78260   0.11970   Biso      1.000     C          -0.1074   
         C9        1.0000    0.20550   0.22460   0.87190   Biso      1.000     C          -0.092698           
         C10       1.0000    0.07060   0.22150   0.81520   Biso      1.000     C          -0.027788           
         C11       1.0000    0.13390   0.22260   0.74940   Biso      1.000     C          0.60181   
         C12       1.0000    0.38020   0.57680   0.27180   Biso      1.000     C          -0.01785  
         C13       1.0000    0.82380   0.04380   0.71520   Biso      1.000     C          -0.102433           
         C14       1.0000    0.45060   0.50980   0.24760   Biso      1.000     C          -0.092025           
         C15       1.0000    0.18430   0.59100   0.26340   Biso      1.000     C          -0.103664           
         C16       1.0000    0.05790   0.53780   0.23100   Biso      1.000     C          -0.088364           
         C17       1.0000    0.32380   0.45620   0.21520   Biso      1.000     C          -0.10243  
         C18       1.0000    0.12670   0.47050   0.20660   Biso      1.000     C          -0.021094           
         C19       1.0000    0.99020   0.41080   0.17480   Biso      1.000     C          0.579209  
         C20       1.0000    0.61020   0.72750   0.49750   Biso      1.000     C          0.59086   
         C21       1.0000    0.54590   0.72300   0.56300   Biso      1.000     C          0.000204  
         C22       1.0000    0.51850   0.63440   0.30740   Biso      1.000     C          0.572118  
         C23       1.0000    0.55790   0.96220   0.73100   Biso      1.000     C          -0.088366           
         C24       1.0000    0.95060   0.99020   0.74760   Biso      1.000     C          -0.092022           
         C25       1.0000    0.35180   0.72600   0.56780   Biso      1.000     C          -0.126554           
         C26       1.0000    0.92940   0.77850   0.18480   Biso      1.000     C          -0.027788           
         C27       1.0000    0.86610   0.77740   0.25060   Biso      1.000     C          0.60181   
         C28       1.0000    0.48150   0.36560   0.69260   Biso      1.000     C          0.572117  
         C29       1.0000    0.61980   0.42320   0.72820   Biso      1.000     C          -0.01785  
         C30       1.0000    0.54940   0.49020   0.75240   Biso      1.000     C          -0.092025           
         C31       1.0000    0.81570   0.40900   0.73660   Biso      1.000     C          -0.103664           
         C32       1.0000    0.94210   0.46220   0.76900   Biso      1.000     C          -0.088364           
         C33       1.0000    0.67620   0.54380   0.78480   Biso      1.000     C          -0.10243  
         C34       1.0000    0.87330   0.52950   0.79340   Biso      1.000     C          -0.021094           
         C35       1.0000    0.68430   0.90900   0.76340   Biso      1.000     C          -0.103662           
         C36       1.0000    0.00980   0.58920   0.82520   Biso      1.000     C          0.579209  
         C37       1.0000    0.45410   0.27700   0.43700   Biso      1.000     C          0.000204  
         C38       1.0000    0.64820   0.27400   0.43220   Biso      1.000     C          -0.126554           
         C39       1.0000    0.31900   0.28260   0.38030   Biso      1.000     C          -0.1074   
         C40       1.0000    0.37620   0.28220   0.31960   Biso      1.000     C          -0.089335           
         C41       1.0000    0.70550   0.27540   0.37190   Biso      1.000     C          -0.092698           
         C42       1.0000    0.57060   0.27850   0.31520   Biso      1.000     C          -0.027788           
         C43       1.0000    0.63390   0.27740   0.24940   Biso      1.000     C          0.60181   
         C44       1.0000    0.01850   0.86560   0.80740   Biso      1.000     C          0.572117  
         C45       1.0000    0.88020   0.92320   0.77180   Biso      1.000     C          -0.01785  
         C46       1.0000    0.38980   0.27250   0.50250   Biso      1.000     C          0.59086   
         C47       1.0000    0.68100   0.71740   0.61970   Biso      1.000     C          -0.1074   
         C48       1.0000    0.42940   0.72150   0.68480   Biso      1.000     C          -0.027788           
         C49       1.0000    0.29450   0.72460   0.62810   Biso      1.000     C          -0.092698           
         C50       1.0000    0.11020   0.77250   0.99750   Biso      1.000     C          0.59086   
         C51       1.0000    0.04590   0.77700   0.06300   Biso      1.000     C          0.000204  
         C52       1.0000    0.85180   0.77400   0.06780   Biso      1.000     C          -0.126554           
         C53       1.0000    0.62380   0.71780   0.68040   Biso      1.000     C          -0.089335           
         C54       1.0000    0.50980   0.91080   0.32520   Biso      1.000     C          0.579208  
         C55       1.0000    0.37330   0.97050   0.29340   Biso      1.000     C          -0.021094           
         C56       1.0000    0.17620   0.95620   0.28480   Biso      1.000     C          -0.102433           
         C57       1.0000    0.12380   0.78220   0.18040   Biso      1.000     C          -0.089335           
         C58       1.0000    0.31570   0.09100   0.23660   Biso      1.000     C          -0.103664           
         C59       1.0000    0.11980   0.07680   0.22820   Biso      1.000     C          -0.01785  
         C60       1.0000    0.98150   0.13440   0.19260   Biso      1.000     C          0.572118  
         C61       1.0000    0.44210   0.03780   0.26900   Biso      1.000     C          -0.088364           
         C62       1.0000    0.79450   0.77540   0.12810   Biso      1.000     C          -0.092698           
         C63       1.0000    0.04940   0.00980   0.25240   Biso      1.000     C          -0.092022           
         C64       1.0000    0.36610   0.72260   0.75060   Biso      1.000     C          0.60181   
         H1        1.0000    0.13040   0.91090   0.30080   Biso      1.000     H          0.110768  
         H2        1.0000    0.57310   0.04700   0.27440   Biso      1.000     H          0.12285   
         H3        1.0000    0.36140   0.13620   0.22050   Biso      1.000     H          0.111725  
         H4        1.0000    0.91820   0.00100   0.24690   Biso      1.000     H          0.124346  
         H5        1.0000    0.33530   0.22560   0.86910   Biso      1.000     H          0.120576  
         H6        1.0000    0.71470   0.71560   0.71810   Biso      1.000     H          0.122947  
         H7        1.0000    0.81030   0.71340   0.61670   Biso      1.000     H          0.121905  
         H8        1.0000    0.26080   0.72890   0.53020   Biso      1.000     H          0.098552  
         H9        1.0000    0.36960   0.41090   0.19920   Biso      1.000     H          0.110767  
         H10       1.0000    0.92690   0.54700   0.22560   Biso      1.000     H          0.12285   
         H11       1.0000    0.13860   0.63620   0.27950   Biso      1.000     H          0.111725  
         H12       1.0000    0.58180   0.50100   0.25310   Biso      1.000     H          0.124347  
         H13       1.0000    0.16470   0.72560   0.63090   Biso      1.000     H          0.120576  
         H14       1.0000    0.68970   0.21340   0.88330   Biso      1.000     H          0.121905  
         H15       1.0000    0.23920   0.22890   0.96980   Biso      1.000     H          0.098552  
         H16       1.0000    0.76080   0.77110   0.03020   Biso      1.000     H          0.098552  
         H17       1.0000    0.31030   0.78660   0.11670   Biso      1.000     H          0.121905  
         H18       1.0000    0.21470   0.78440   0.21810   Biso      1.000     H          0.122947  
         H19       1.0000    0.66470   0.77440   0.13090   Biso      1.000     H          0.120576  
         H20       1.0000    0.41820   0.49900   0.74690   Biso      1.000     H          0.124347  
         H21       1.0000    0.86140   0.36380   0.72050   Biso      1.000     H          0.111725  
         H22       1.0000    0.07310   0.45300   0.77440   Biso      1.000     H          0.12285   
         H23       1.0000    0.63040   0.58910   0.80080   Biso      1.000     H          0.110767  
         H24       1.0000    0.73920   0.27110   0.46980   Biso      1.000     H          0.098552  
         H25       1.0000    0.18970   0.28660   0.38330   Biso      1.000     H          0.121905  
         H26       1.0000    0.28530   0.28440   0.28190   Biso      1.000     H          0.122947  
         H27       1.0000    0.83530   0.27440   0.36910   Biso      1.000     H          0.120576  
         H28       1.0000    0.63860   0.86380   0.77950   Biso      1.000     H          0.111725  
         H29       1.0000    0.42690   0.95300   0.72560   Biso      1.000     H          0.12285   
         H30       1.0000    0.86960   0.08910   0.69920   Biso      1.000     H          0.110768  
         H31       1.0000    0.78530   0.21560   0.78190   Biso      1.000     H          0.122947  
         H32       1.0000    0.08180   0.99900   0.75310   Biso      1.000     H          0.124346  
         Na1       1.0000    0.22220   0.76205   0.38780   Biso      1.000     Na          0.901282  
         Na2       1.0000    0.72220   0.73795   0.88780   Biso      1.000     Na          0.901282  
         Na3       1.0000    0.77780   0.23795   0.61220   Biso      1.000     Na          0.901282  
         Na4       1.0000    0.27780   0.26205   0.11220   Biso      1.000     Na          0.901282  
         O1        1.0000    0.31544   0.07830   0.66174   Biso      1.000     O          -0.527025           
         O2        1.0000    0.19448   0.87429   0.81388   Biso      1.000     O          -0.505072           
         O3        1.0000    0.94304   0.80608   0.83114   Biso      1.000     O          -0.567515           
         O4        1.0000    0.81194   0.28097   0.24714   Biso      1.000     O          -0.502125           
         O5        1.0000    0.51011   0.27264   0.19901   Biso      1.000     O          -0.68576  
         O6        1.0000    0.48142   0.22616   0.54362   Biso      1.000     O          -0.663447           
         O7        1.0000    0.93571   0.65427   0.83781   Biso      1.000     O          -0.563709           
         O8        1.0000    0.56429   0.15427   0.66219   Biso      1.000     O          -0.563709           
         O9        1.0000    0.18456   0.57830   0.83826   Biso      1.000     O          -0.527025           
         O10       1.0000    0.30552   0.37429   0.68612   Biso      1.000     O          -0.505072           
         O11       1.0000    0.55696   0.30608   0.66886   Biso      1.000     O          -0.567515           
         O12       1.0000    0.68806   0.78097   0.25286   Biso      1.000     O          -0.502125           
         O13       1.0000    0.98989   0.77264   0.30099   Biso      1.000     O          -0.68576  
         O14       1.0000    0.24992   0.31030   0.51372   Biso      1.000     O          -0.571824           
         O15       1.0000    0.74992   0.18970   0.01372   Biso      1.000     O          -0.571824           
         O16       1.0000    0.98142   0.27384   0.04362   Biso      1.000     O          -0.663447           
         O17       1.0000    0.01011   0.22736   0.69901   Biso      1.000     O          -0.68576  
         O18       1.0000    0.31194   0.21903   0.74714   Biso      1.000     O          -0.502125           
         O19       1.0000    0.44304   0.69392   0.33114   Biso      1.000     O          -0.567515           
         O20       1.0000    0.69448   0.62571   0.31388   Biso      1.000     O          -0.505072           
         O21       1.0000    0.81544   0.42170   0.16174   Biso      1.000     O          -0.527025           
         O22       1.0000    0.06429   0.34573   0.16219   Biso      1.000     O          -0.56371  
         O23       1.0000    0.75008   0.68970   0.48628   Biso      1.000     O          -0.571824           
         O24       1.0000    0.51858   0.77384   0.45638   Biso      1.000     O          -0.663447           
         O25       1.0000    0.48989   0.72736   0.80099   Biso      1.000     O          -0.68576  
         O26       1.0000    0.18806   0.71903   0.75286   Biso      1.000     O          -0.502125           
         O27       1.0000    0.05696   0.19392   0.16886   Biso      1.000     O          -0.567515           
         O28       1.0000    0.80552   0.12571   0.18612   Biso      1.000     O          -0.505072           
         O29       1.0000    0.68456   0.92170   0.33826   Biso      1.000     O          -0.527025           
         O30       1.0000    0.43571   0.84573   0.33781   Biso      1.000     O          -0.563709           
         O31       1.0000    0.01858   0.72616   0.95638   Biso      1.000     O          -0.663447           
         O32       1.0000    0.25008   0.81030   0.98628   Biso      1.000     O          -0.571824 