
##########################################################################
#               Crystallographic Information Format file
#               Produced by PyCifRW module
#
#  This is a CIF file.  CIF has been adopted by the International
#  Union of Crystallography as the standard for data archiving and
#  transmission.
#
#  For information on this file format, follow the CIF links at
#  http://www.iucr.org
##########################################################################

data_image0

_cell_length_a                          11.941
_cell_length_b                          15.2986
_cell_length_c                          17.316
_cell_angle_alpha                       84.7218
_cell_angle_beta                        76.3661
_cell_angle_gamma                       67.0291
_symmetry_space_group_name_H-M          'P 1'
_symmetry_int_tables_number             1
loop_
  _symmetry_equiv_pos_as_xyz
         'x, y, z' 
loop_
  _atom_site_label
  _atom_site_occupancy
  _atom_site_fract_x
  _atom_site_fract_y
  _atom_site_fract_z
  _atom_site_thermal_displace_type
  _atom_site_B_iso_or_equiv
  _atom_site_type_symbol
  _atom_site_charge
         C1        1.0000    0.50600   0.14640   0.32850   Biso      1.000     C          0.094654  
         C2        1.0000    0.04030   0.54020   0.68880   Biso      1.000     C          0.612023  
         C3        1.0000    0.04890   0.56560   0.60220   Biso      1.000     C          -0.048346           
         C4        1.0000    0.28100   0.49940   0.58880   Biso      1.000     C          0.574228  
         C5        1.0000    0.16760   0.54660   0.55380   Biso      1.000     C          -0.042496           
         C6        1.0000    0.18220   0.56960   0.47380   Biso      1.000     C          -0.018324           
         C7        1.0000    0.30720   0.56100   0.42460   Biso      1.000     C          0.585589  
         C8        1.0000    0.41290   0.62580   0.01280   Biso      1.000     C          -0.100992           
         C9        1.0000    0.94490   0.60720   0.56770   Biso      1.000     C          -0.056075           
         C10       1.0000    0.31370   0.60700   0.06020   Biso      1.000     C          -0.115205           
         C11       1.0000    0.72500   0.84680   0.28490   Biso      1.000     C          -0.187881           
         C12       1.0000    0.71450   0.91480   0.22730   Biso      1.000     C          0.106289  
         C13       1.0000    0.65630   0.01760   0.24530   Biso      1.000     C          0.10738   
         C14       1.0000    0.56750   0.04960   0.31320   Biso      1.000     C          -0.198662           
         C15       1.0000    0.61950   0.18020   0.21400   Biso      1.000     C          0.118656  
         C16       1.0000    0.68190   0.08620   0.19440   Biso      1.000     C          -0.188702           
         C17       1.0000    0.75650   0.88320   0.14880   Biso      1.000     C          -0.202736           
         C18       1.0000    0.77580   0.75300   0.26620   Biso      1.000     C          0.105996  
         C19       1.0000    0.80710   0.78480   0.13470   Biso      1.000     C          0.107495  
         C20       1.0000    0.81490   0.62480   0.61500   Biso      1.000     C          0.568726  
         C21       1.0000    0.07930   0.60700   0.43980   Biso      1.000     C          -0.116975           
         C22       1.0000    0.41950   0.54020   0.81120   Biso      1.000     C          0.612805  
         C23       1.0000    0.38550   0.56560   0.89780   Biso      1.000     C          -0.048229           
         C24       1.0000    0.21960   0.49940   0.91120   Biso      1.000     C          0.574623  
         C25       1.0000    0.28580   0.54660   0.94620   Biso      1.000     C          -0.042764           
         C26       1.0000    0.24820   0.56960   0.02620   Biso      1.000     C          -0.019288           
         C27       1.0000    0.13180   0.56100   0.07540   Biso      1.000     C          0.585112  
         C28       1.0000    0.40810   0.78480   0.36530   Biso      1.000     C          0.105835  
         C29       1.0000    0.96130   0.62580   0.48720   Biso      1.000     C          -0.100124           
         C30       1.0000    0.36030   0.88320   0.35120   Biso      1.000     C          -0.202658           
         C31       1.0000    0.20030   0.18020   0.28600   Biso      1.000     C          0.11868   
         C32       1.0000    0.34760   0.14640   0.17150   Biso      1.000     C          0.095237  
         C33       1.0000    0.38290   0.04960   0.18680   Biso      1.000     C          -0.199413           
         C34       1.0000    0.32610   0.01760   0.25470   Biso      1.000     C          0.105734  
         C35       1.0000    0.37070   0.91480   0.27270   Biso      1.000     C          0.106994  
         C36       1.0000    0.42820   0.84680   0.21510   Biso      1.000     C          -0.187178           
         C37       1.0000    0.47120   0.75300   0.23380   Biso      1.000     C          0.106224  
         C38       1.0000    0.23190   0.08620   0.30560   Biso      1.000     C          -0.187693           
         C39       1.0000    0.69280   0.43900   0.57540   Biso      1.000     C          0.58559   
         C40       1.0000    0.81780   0.43040   0.52620   Biso      1.000     C          -0.018326           
         C41       1.0000    0.83240   0.45340   0.44620   Biso      1.000     C          -0.042495           
         C42       1.0000    0.61450   0.43440   0.10220   Biso      1.000     C          -0.048229           
         C43       1.0000    0.58050   0.45980   0.18880   Biso      1.000     C          0.612805  
         C44       1.0000    0.55210   0.39280   0.06770   Biso      1.000     C          -0.056748           
         C45       1.0000    0.43970   0.37520   0.11500   Biso      1.000     C          0.570973  
         C46       1.0000    0.58710   0.37420   0.98720   Biso      1.000     C          -0.100992           
         C47       1.0000    0.68630   0.39300   0.93980   Biso      1.000     C          -0.115205           
         C48       1.0000    0.22420   0.24700   0.73380   Biso      1.000     C          0.105981  
         C49       1.0000    0.78040   0.50060   0.08880   Biso      1.000     C          0.574624  
         C50       1.0000    0.27500   0.15320   0.71510   Biso      1.000     C          -0.187866           
         C51       1.0000    0.34370   0.98240   0.75470   Biso      1.000     C          0.10738   
         C52       1.0000    0.43250   0.95040   0.68680   Biso      1.000     C          -0.198663           
         C53       1.0000    0.49400   0.85360   0.67150   Biso      1.000     C          0.094654  
         C54       1.0000    0.38050   0.81980   0.78600   Biso      1.000     C          0.118656  
         C55       1.0000    0.31810   0.91380   0.80560   Biso      1.000     C          -0.188702           
         C56       1.0000    0.24350   0.11680   0.85120   Biso      1.000     C          -0.202736           
         C57       1.0000    0.19290   0.21520   0.86530   Biso      1.000     C          0.107496  
         C58       1.0000    0.28550   0.08520   0.77270   Biso      1.000     C          0.106287  
         C59       1.0000    0.71420   0.45340   0.05380   Biso      1.000     C          -0.042764           
         C60       1.0000    0.75180   0.43040   0.97380   Biso      1.000     C          -0.019289           
         C61       1.0000    0.86820   0.43900   0.92460   Biso      1.000     C          0.585112  
         C62       1.0000    0.71900   0.50060   0.41120   Biso      1.000     C          0.574229  
         C63       1.0000    0.95110   0.43440   0.39780   Biso      1.000     C          -0.048344           
         C64       1.0000    0.95970   0.45980   0.31120   Biso      1.000     C          0.612023  
         C65       1.0000    0.05510   0.39280   0.43230   Biso      1.000     C          -0.05607  
         C66       1.0000    0.18510   0.37520   0.38500   Biso      1.000     C          0.568726  
         C67       1.0000    0.03870   0.37420   0.51280   Biso      1.000     C          -0.100124           
         C68       1.0000    0.92070   0.39300   0.56020   Biso      1.000     C          -0.116972           
         C69       1.0000    0.52880   0.24700   0.76620   Biso      1.000     C          0.10621   
         C70       1.0000    0.57180   0.15320   0.78490   Biso      1.000     C          -0.187171           
         C71       1.0000    0.62930   0.08520   0.72730   Biso      1.000     C          0.107     
         C72       1.0000    0.67390   0.98240   0.74530   Biso      1.000     C          0.105725  
         C73       1.0000    0.61710   0.95040   0.81320   Biso      1.000     C          -0.199404           
         C74       1.0000    0.65240   0.85360   0.82850   Biso      1.000     C          0.095235  
         C75       1.0000    0.79970   0.81980   0.71400   Biso      1.000     C          0.118681  
         C76       1.0000    0.76810   0.91380   0.69440   Biso      1.000     C          -0.187693           
         C77       1.0000    0.63970   0.11680   0.64880   Biso      1.000     C          -0.202661           
         C78       1.0000    0.59190   0.21520   0.63470   Biso      1.000     C          0.105837  
         C79       1.0000    0.44790   0.60720   0.93230   Biso      1.000     C          -0.056748           
         C80       1.0000    0.56030   0.62480   0.88500   Biso      1.000     C          0.570975  
         Cd1       1.0000    0.52726   0.56266   0.33444   Biso      1.000     Cd          0.90808   
         Cd2       1.0000    0.47274   0.43734   0.66556   Biso      1.000     Cd          0.908079  
         Cd3       1.0000    0.20915   0.36928   0.18588   Biso      1.000     Cd          1.032242  
         Cd4       1.0000    0.91008   0.56266   0.16556   Biso      1.000     Cd          0.907518  
         Cd5       1.0000    0.42157   0.36928   0.31412   Biso      1.000     Cd          1.032194  
         Cd6       1.0000    0.79085   0.63072   0.81412   Biso      1.000     Cd          1.032242  
         Cd7       1.0000    0.08992   0.43734   0.83444   Biso      1.000     Cd          0.907517  
         Cd8       1.0000    0.57843   0.63072   0.68588   Biso      1.000     Cd          1.032201  
         H1        1.0000    0.54800   0.00620   0.34960   Biso      1.000     H          0.122583  
         H2        1.0000    0.69680   0.86480   0.33800   Biso      1.000     H          0.129417  
         H3        1.0000    0.78220   0.70880   0.30720   Biso      1.000     H          0.111056  
         H4        1.0000    0.29120   0.61960   0.11440   Biso      1.000     H          0.129938  
         H5        1.0000    0.45650   0.65140   0.03570   Biso      1.000     H          0.121681  
         H6        1.0000    0.15300   0.34800   0.02770   Biso      1.000     H          0.378342  
         H7        1.0000    0.40150   0.76360   0.41770   Biso      1.000     H          0.104808  
         H8        1.0000    0.32270   0.92600   0.39320   Biso      1.000     H          0.132138  
         H9        1.0000    0.44580   0.00620   0.15040   Biso      1.000     H          0.12313   
         H10       1.0000    0.13510   0.22460   0.32040   Biso      1.000     H          0.100762  
         H11       1.0000    0.38890   0.16600   0.12500   Biso      1.000     H          0.10011   
         H12       1.0000    0.44510   0.16600   0.37500   Biso      1.000     H          0.100274  
         H13       1.0000    0.43840   0.86480   0.16200   Biso      1.000     H          0.128867  
         H14       1.0000    0.50900   0.70880   0.19280   Biso      1.000     H          0.109887  
         H15       1.0000    0.08920   0.61960   0.38560   Biso      1.000     H          0.13098   
         H16       1.0000    0.89210   0.65140   0.46430   Biso      1.000     H          0.121196  
         H17       1.0000    0.50100   0.65200   0.52770   Biso      1.000     H          0.378794  
         H18       1.0000    0.19030   0.06840   0.35290   Biso      1.000     H          0.132186  
         H19       1.0000    0.64030   0.22460   0.17960   Biso      1.000     H          0.100384  
         H20       1.0000    0.16510   0.23640   0.91770   Biso      1.000     H          0.10408   
         H21       1.0000    0.75130   0.92600   0.10680   Biso      1.000     H          0.132192  
         H22       1.0000    0.24870   0.07400   0.89320   Biso      1.000     H          0.132192  
         H23       1.0000    0.25870   0.93160   0.85290   Biso      1.000     H          0.132383  
         H24       1.0000    0.35970   0.77540   0.82040   Biso      1.000     H          0.100386  
         H25       1.0000    0.55490   0.83400   0.62500   Biso      1.000     H          0.100277  
         H26       1.0000    0.45200   0.99380   0.65040   Biso      1.000     H          0.122584  
         H27       1.0000    0.74130   0.06840   0.14710   Biso      1.000     H          0.132383  
         H28       1.0000    0.30320   0.13520   0.66200   Biso      1.000     H          0.129414  
         H29       1.0000    0.21780   0.29120   0.69280   Biso      1.000     H          0.111058  
         H30       1.0000    0.70880   0.38040   0.88560   Biso      1.000     H          0.129936  
         H31       1.0000    0.54350   0.34860   0.96430   Biso      1.000     H          0.121681  
         H32       1.0000    0.59850   0.23640   0.58230   Biso      1.000     H          0.104807  
         H33       1.0000    0.84700   0.65200   0.97230   Biso      1.000     H          0.378344  
         H34       1.0000    0.80970   0.93160   0.64710   Biso      1.000     H          0.132187  
         H35       1.0000    0.86490   0.77540   0.67960   Biso      1.000     H          0.100763  
         H36       1.0000    0.61110   0.83400   0.87500   Biso      1.000     H          0.100109  
         H37       1.0000    0.55420   0.99380   0.84960   Biso      1.000     H          0.123129  
         H38       1.0000    0.56160   0.13520   0.83800   Biso      1.000     H          0.128868  
         H39       1.0000    0.49100   0.29120   0.80720   Biso      1.000     H          0.109889  
         H40       1.0000    0.91080   0.38040   0.61440   Biso      1.000     H          0.130981  
         H41       1.0000    0.10790   0.34860   0.53570   Biso      1.000     H          0.121199  
         H42       1.0000    0.49900   0.34800   0.47230   Biso      1.000     H          0.37879   
         H43       1.0000    0.83490   0.76360   0.08230   Biso      1.000     H          0.10408   
         H44       1.0000    0.67730   0.07400   0.60680   Biso      1.000     H          0.132143  
         N1        1.0000    0.74280   0.78780   0.77950   Biso      1.000     N          -0.215473           
         N2        1.0000    0.46940   0.78780   0.72050   Biso      1.000     N          -0.215174           
         N3        1.0000    0.18300   0.27840   0.80870   Biso      1.000     N          -0.210598           
         N4        1.0000    0.53860   0.27840   0.69130   Biso      1.000     N          -0.209036           
         N5        1.0000    0.46140   0.72160   0.30870   Biso      1.000     N          -0.209038           
         N6        1.0000    0.81700   0.72160   0.19130   Biso      1.000     N          -0.2106   
         N7        1.0000    0.25720   0.21220   0.22050   Biso      1.000     N          -0.215472           
         N8        1.0000    0.53060   0.21220   0.27950   Biso      1.000     N          -0.215172           
         O1        1.0000    0.65595   0.47170   0.64540   Biso      1.000     O          -0.568877           
         O2        1.0000    0.64202   0.58036   0.43580   Biso      1.000     O          -0.515758           
         O3        1.0000    0.70880   0.45960   0.35550   Biso      1.000     O          -0.464607           
         O4        1.0000    0.90990   0.54600   0.29520   Biso      1.000     O          -0.542563           
         O5        1.0000    0.01082   0.39536   0.25950   Biso      1.000     O          -0.563223           
         O6        1.0000    0.20221   0.41098   0.31680   Biso      1.000     O          -0.584264           
         O7        1.0000    0.27520   0.32940   0.41570   Biso      1.000     O          -0.549837           
         O8        1.0000    0.96270   0.40700   0.95280   Biso      1.000     O          -0.512874           
         O9        1.0000    0.87235   0.47170   0.85460   Biso      1.000     O          -0.568142           
         O10       1.0000    0.77762   0.58036   0.06420   Biso      1.000     O          -0.515061           
         O11       1.0000    0.83160   0.45960   0.14450   Biso      1.000     O          -0.464918           
         O12       1.0000    0.54410   0.54600   0.20480   Biso      1.000     O          -0.542771           
         O13       1.0000    0.38681   0.41098   0.18320   Biso      1.000     O          -0.584804           
         O14       1.0000    0.59382   0.39536   0.24050   Biso      1.000     O          -0.563492           
         O15       1.0000    0.63030   0.40700   0.54720   Biso      1.000     O          -0.513415           
         O16       1.0000    0.86770   0.65460   0.91970   Biso      1.000     O          -0.595805           
         O17       1.0000    0.52230   0.34540   0.41970   Biso      1.000     O          -0.595968           
         O18       1.0000    0.34405   0.52830   0.35460   Biso      1.000     O          -0.568881           
         O19       1.0000    0.61319   0.58902   0.81680   Biso      1.000     O          -0.584806           
         O20       1.0000    0.39540   0.32940   0.08430   Biso      1.000     O          -0.55131  
         O21       1.0000    0.36970   0.59300   0.45280   Biso      1.000     O          -0.513421           
         O22       1.0000    0.35798   0.41964   0.56420   Biso      1.000     O          -0.515767           
         O23       1.0000    0.29120   0.54040   0.64450   Biso      1.000     O          -0.464613           
         O24       1.0000    0.09010   0.45400   0.70480   Biso      1.000     O          -0.542567           
         O25       1.0000    0.98918   0.60464   0.74050   Biso      1.000     O          -0.563228           
         O26       1.0000    0.79779   0.58902   0.68320   Biso      1.000     O          -0.584265           
         O27       1.0000    0.72480   0.67060   0.58430   Biso      1.000     O          -0.549839           
         O28       1.0000    0.13230   0.34540   0.08030   Biso      1.000     O          -0.595815           
         O29       1.0000    0.03730   0.59300   0.04720   Biso      1.000     O          -0.512873           
         O30       1.0000    0.12765   0.52830   0.14540   Biso      1.000     O          -0.568141           
         O31       1.0000    0.22238   0.41964   0.93580   Biso      1.000     O          -0.515057           
         O32       1.0000    0.16840   0.54040   0.85550   Biso      1.000     O          -0.464917           
         O33       1.0000    0.45590   0.45400   0.79520   Biso      1.000     O          -0.542774           
         O34       1.0000    0.40618   0.60464   0.75950   Biso      1.000     O          -0.563491           
         O35       1.0000    0.60460   0.67060   0.91570   Biso      1.000     O          -0.551311           
         O36       1.0000    0.47770   0.65460   0.58030   Biso      1.000     O          -0.595975 