
##########################################################################
#               Crystallographic Information Format file
#               Produced by PyCifRW module
#
#  This is a CIF file.  CIF has been adopted by the International
#  Union of Crystallography as the standard for data archiving and
#  transmission.
#
#  For information on this file format, follow the CIF links at
#  http://www.iucr.org
##########################################################################

data_image0

_cell_length_a                          12.8688
_cell_length_b                          18.0925
_cell_length_c                          14.519
_cell_angle_alpha                       90
_cell_angle_beta                        116.053
_cell_angle_gamma                       90
_symmetry_space_group_name_H-M          'P 1'
_symmetry_int_tables_number             1
loop_
  _symmetry_equiv_pos_as_xyz
         'x, y, z' 
loop_
  _atom_site_label
  _atom_site_occupancy
  _atom_site_fract_x
  _atom_site_fract_y
  _atom_site_fract_z
  _atom_site_thermal_displace_type
  _atom_site_B_iso_or_equiv
  _atom_site_type_symbol
  _atom_site_charge
         C1        1.0000    0.72520   0.00850   0.92220   Biso      1.000     C          -0.131176           
         C2        1.0000    0.93290   0.59390   0.11760   Biso      1.000     C          -0.15826400000000002          
         C3        1.0000    0.96350   0.46330   0.11110   Biso      1.000     C          -0.135927           
         C4        1.0000    0.81630   0.58090   0.09270   Biso      1.000     C          0.0029809999999999997         
         C5        1.0000    0.84810   0.44940   0.08800   Biso      1.000     C          -0.003032           
         C6        1.0000    0.12830   0.54960   0.14780   Biso      1.000     C          0.268509  
         C7        1.0000    0.00620   0.53570   0.12490   Biso      1.000     C          0.036578  
         C8        1.0000    0.50620   0.96430   0.12490   Biso      1.000     C          0.03664   
         C9        1.0000    0.62830   0.95040   0.14780   Biso      1.000     C          0.268475  
         C10       1.0000    0.34810   0.05060   0.08800   Biso      1.000     C          -0.003055           
         C11       1.0000    0.31630   0.91910   0.09270   Biso      1.000     C          0.002925  
         C12       1.0000    0.46350   0.03670   0.11110   Biso      1.000     C          -0.135871           
         C13       1.0000    0.43290   0.90610   0.11760   Biso      1.000     C          -0.15825799999999998          
         C14       1.0000    0.23870   0.85490   0.08200   Biso      1.000     C          0.5689029999999999  
         C15       1.0000    0.30380   0.12900   0.07090   Biso      1.000     C          0.577893  
         C16       1.0000    0.27480   0.99150   0.07780   Biso      1.000     C          -0.13156600000000002          
         C17       1.0000    0.77480   0.49150   0.57780   Biso      1.000     C          -0.13122799999999998          
         C18       1.0000    0.30380   0.87100   0.57090   Biso      1.000     C          0.5782430000000001  
         C19       1.0000    0.73870   0.64510   0.08200   Biso      1.000     C          0.568889  
         C20       1.0000    0.77480   0.50850   0.07780   Biso      1.000     C          -0.131524           
         C21       1.0000    0.43290   0.09390   0.61760   Biso      1.000     C          -0.158478           
         C22       1.0000    0.27480   0.00850   0.57780   Biso      1.000     C          -0.131221           
         C23       1.0000    0.46350   0.96330   0.61110   Biso      1.000     C          -0.135748           
         C24       1.0000    0.31630   0.08090   0.59270   Biso      1.000     C          0.002785  
         C25       1.0000    0.34810   0.94940   0.58800   Biso      1.000     C          -0.002633           
         C26       1.0000    0.62830   0.04960   0.64780   Biso      1.000     C          0.268871  
         C27       1.0000    0.50620   0.03570   0.62490   Biso      1.000     C          0.036337  
         C28       1.0000    0.00620   0.46430   0.62490   Biso      1.000     C          0.03633   
         C29       1.0000    0.12830   0.45040   0.64780   Biso      1.000     C          0.268813  
         C30       1.0000    0.84810   0.55060   0.58800   Biso      1.000     C          -0.002679           
         C31       1.0000    0.81630   0.41910   0.59270   Biso      1.000     C          0.002802  
         C32       1.0000    0.96350   0.53670   0.61110   Biso      1.000     C          -0.13581400000000002          
         C33       1.0000    0.93290   0.40610   0.61760   Biso      1.000     C          -0.158485           
         C34       1.0000    0.73870   0.35490   0.58200   Biso      1.000     C          0.568975  
         C35       1.0000    0.80380   0.62900   0.57090   Biso      1.000     C          0.577959  
         C36       1.0000    0.80380   0.37100   0.07090   Biso      1.000     C          0.5778810000000001  
         C37       1.0000    0.69620   0.87100   0.92910   Biso      1.000     C          0.578129  
         C38       1.0000    0.23870   0.14510   0.58200   Biso      1.000     C          0.568987  
         C39       1.0000    0.99380   0.46430   0.87510   Biso      1.000     C          0.036389  
         C40       1.0000    0.19620   0.37100   0.42910   Biso      1.000     C          0.577842  
         C41       1.0000    0.26130   0.64510   0.41800   Biso      1.000     C          0.5688850000000001  
         C42       1.0000    0.65190   0.05060   0.41200   Biso      1.000     C          -0.003005           
         C43       1.0000    0.06710   0.59390   0.38240   Biso      1.000     C          -0.15826099999999999          
         C44       1.0000    0.68370   0.91910   0.40730   Biso      1.000     C          0.002868  
         C45       1.0000    0.03650   0.46330   0.38890   Biso      1.000     C          -0.135907           
         C46       1.0000    0.18370   0.58090   0.40730   Biso      1.000     C          0.002961  
         C47       1.0000    0.15190   0.44940   0.41200   Biso      1.000     C          -0.0030510000000000003        
         C48       1.0000    0.87170   0.54960   0.35220   Biso      1.000     C          0.268485  
         C49       1.0000    0.99380   0.53570   0.37510   Biso      1.000     C          0.036608  
         C50       1.0000    0.53650   0.03670   0.38890   Biso      1.000     C          -0.13597599999999999          
         C51       1.0000    0.56710   0.90610   0.38240   Biso      1.000     C          -0.158332           
         C52       1.0000    0.76130   0.85490   0.41800   Biso      1.000     C          0.5688949999999999  
         C53       1.0000    0.69620   0.12900   0.42910   Biso      1.000     C          0.5775279999999999  
         C54       1.0000    0.72520   0.99150   0.42220   Biso      1.000     C          -0.131509           
         C55       1.0000    0.76130   0.14510   0.91800   Biso      1.000     C          0.569017  
         C56       1.0000    0.37170   0.95040   0.35220   Biso      1.000     C          0.268492  
         C57       1.0000    0.22520   0.50850   0.42220   Biso      1.000     C          -0.131547           
         C58       1.0000    0.65190   0.94940   0.91200   Biso      1.000     C          -0.0025670000000000003        
         C59       1.0000    0.68370   0.08090   0.90730   Biso      1.000     C          0.002744  
         C60       1.0000    0.56710   0.09390   0.88240   Biso      1.000     C          -0.158526           
         C61       1.0000    0.49380   0.96430   0.37510   Biso      1.000     C          0.036557  
         C62       1.0000    0.37170   0.04960   0.85220   Biso      1.000     C          0.26889   
         C63       1.0000    0.49380   0.03570   0.87510   Biso      1.000     C          0.036282999999999996          
         C64       1.0000    0.53650   0.96330   0.88890   Biso      1.000     C          -0.13580699999999998          
         C65       1.0000    0.15190   0.55060   0.91200   Biso      1.000     C          -0.002747           
         C66       1.0000    0.03650   0.53670   0.88890   Biso      1.000     C          -0.135728           
         C67       1.0000    0.06710   0.40610   0.88240   Biso      1.000     C          -0.15841  
         C68       1.0000    0.26130   0.35490   0.91800   Biso      1.000     C          0.5689960000000001  
         C69       1.0000    0.19620   0.62900   0.92910   Biso      1.000     C          0.577928  
         C70       1.0000    0.22520   0.49150   0.92220   Biso      1.000     C          -0.131231           
         C71       1.0000    0.18370   0.41910   0.90730   Biso      1.000     C          0.002834  
         C72       1.0000    0.87170   0.45040   0.85220   Biso      1.000     C          0.268778  
         Cd1       1.0000    0.50000   0.50328   0.25000   Biso      1.000     Cd          1.010413  
         Cd2       1.0000    0.00000   0.00328   0.75000   Biso      1.000     Cd          1.018043  
         Cd3       1.0000    0.39060   0.22877   0.94282   Biso      1.000     Cd          1.028748  
         Cd4       1.0000    0.89060   0.72877   0.44282   Biso      1.000     Cd          1.028526  
         Cd5       1.0000    0.50000   0.49672   0.75000   Biso      1.000     Cd          1.016252  
         Cd6       1.0000    0.60940   0.22877   0.55718   Biso      1.000     Cd          1.028545  
         Cd7       1.0000    0.10940   0.72877   0.05718   Biso      1.000     Cd          1.02884   
         Cd8       1.0000    0.10940   0.27123   0.55718   Biso      1.000     Cd          1.028683  
         Cd9       1.0000    0.00000   0.99672   0.25000   Biso      1.000     Cd          1.010313  
         Cd10      1.0000    0.39060   0.77123   0.44282   Biso      1.000     Cd          1.028489  
         Cd11      1.0000    0.89060   0.27123   0.94282   Biso      1.000     Cd          1.028627  
         Cd12      1.0000    0.60940   0.77123   0.05718   Biso      1.000     Cd          1.028376  
         H1        1.0000    0.51270   0.92390   0.61740   Biso      1.000     H          0.12541300000000002           
         H2        1.0000    0.51270   0.07610   0.11740   Biso      1.000     H          0.125377  
         H3        1.0000    0.46140   0.85800   0.12940   Biso      1.000     H          0.108244  
         H4        1.0000    0.19730   0.00030   0.06100   Biso      1.000     H          0.12046099999999998           
         H5        1.0000    0.46140   0.14200   0.62940   Biso      1.000     H          0.10809400000000001           
         H6        1.0000    0.53860   0.14200   0.87060   Biso      1.000     H          0.108075  
         H7        1.0000    0.48730   0.92390   0.88260   Biso      1.000     H          0.12539   
         H8        1.0000    0.98730   0.57610   0.88260   Biso      1.000     H          0.12542799999999998           
         H9        1.0000    0.03860   0.35800   0.87060   Biso      1.000     H          0.108124  
         H10       1.0000    0.30270   0.50030   0.93900   Biso      1.000     H          0.120421  
         H11       1.0000    0.30270   0.49970   0.43900   Biso      1.000     H          0.120474  
         H12       1.0000    0.03860   0.64200   0.37060   Biso      1.000     H          0.10825499999999999           
         H13       1.0000    0.98730   0.42390   0.38260   Biso      1.000     H          0.12537   
         H14       1.0000    0.48730   0.07610   0.38260   Biso      1.000     H          0.125357  
         H15       1.0000    0.53860   0.85800   0.37060   Biso      1.000     H          0.10822799999999999           
         H16       1.0000    0.80270   0.00030   0.43900   Biso      1.000     H          0.12043699999999999           
         H17       1.0000    0.01270   0.42390   0.11740   Biso      1.000     H          0.125367  
         H18       1.0000    0.69730   0.50030   0.56100   Biso      1.000     H          0.12043399999999999           
         H19       1.0000    0.80270   0.99970   0.93900   Biso      1.000     H          0.120374  
         H20       1.0000    0.69730   0.49970   0.06100   Biso      1.000     H          0.120477  
         H21       1.0000    0.01270   0.57610   0.61740   Biso      1.000     H          0.125389  
         H22       1.0000    0.96140   0.35800   0.62940   Biso      1.000     H          0.108101  
         H23       1.0000    0.19730   0.99970   0.56100   Biso      1.000     H          0.120399  
         H24       1.0000    0.96140   0.64200   0.12940   Biso      1.000     H          0.108253  
         N1        1.0000    0.21660   0.10564   0.83230   Biso      1.000     N          -0.06852799999999999          
         N2        1.0000    0.71660   0.39436   0.83230   Biso      1.000     N          -0.068492           
         N3        1.0000    0.69320   0.46423   0.80980   Biso      1.000     N          -0.08632999999999999          
         N4        1.0000    0.19320   0.96423   0.30980   Biso      1.000     N          -0.085633           
         N5        1.0000    0.83010   0.38377   0.85980   Biso      1.000     N          -0.267721           
         N6        1.0000    0.16990   0.38377   0.64020   Biso      1.000     N          -0.267755           
         N7        1.0000    0.78920   0.50129   0.82200   Biso      1.000     N          -0.23530900000000002          
         N8        1.0000    0.33010   0.88377   0.35980   Biso      1.000     N          -0.26806199999999997          
         N9        1.0000    0.80680   0.03577   0.69020   Biso      1.000     N          -0.086664           
         N10       1.0000    0.28920   0.99871   0.82200   Biso      1.000     N          -0.235231           
         N11       1.0000    0.28340   0.39436   0.66770   Biso      1.000     N          -0.068514           
         N12       1.0000    0.33010   0.11623   0.85980   Biso      1.000     N          -0.267636           
         N13       1.0000    0.21080   0.50129   0.67800   Biso      1.000     N          -0.23539000000000002          
         N14       1.0000    0.19320   0.03577   0.80980   Biso      1.000     N          -0.086588           
         N15       1.0000    0.28920   0.00129   0.32200   Biso      1.000     N          -0.23598200000000003          
         N16       1.0000    0.66990   0.11623   0.64020   Biso      1.000     N          -0.26765900000000004          
         N17       1.0000    0.78340   0.10564   0.66770   Biso      1.000     N          -0.068472           
         N18       1.0000    0.21660   0.89436   0.33230   Biso      1.000     N          -0.068101           
         N19       1.0000    0.78920   0.49871   0.32200   Biso      1.000     N          -0.23602199999999998          
         N20       1.0000    0.78340   0.89436   0.16770   Biso      1.000     N          -0.068123           
         N21       1.0000    0.80680   0.96423   0.19020   Biso      1.000     N          -0.08562  
         N22       1.0000    0.66990   0.88377   0.14020   Biso      1.000     N          -0.268021           
         N23       1.0000    0.71660   0.60564   0.33230   Biso      1.000     N          -0.068307           
         N24       1.0000    0.71080   0.00129   0.17800   Biso      1.000     N          -0.23600100000000002          
         N25       1.0000    0.30680   0.46423   0.69020   Biso      1.000     N          -0.08634800000000001          
         N26       1.0000    0.69320   0.53577   0.30980   Biso      1.000     N          -0.085715           
         N27       1.0000    0.16990   0.61623   0.14020   Biso      1.000     N          -0.26815100000000003          
         N28       1.0000    0.21080   0.49871   0.17800   Biso      1.000     N          -0.235981           
         N29       1.0000    0.28340   0.60564   0.16770   Biso      1.000     N          -0.068341           
         N30       1.0000    0.83010   0.61623   0.35980   Biso      1.000     N          -0.268042           
         N31       1.0000    0.71080   0.99871   0.67800   Biso      1.000     N          -0.235217           
         N32       1.0000    0.30680   0.53577   0.19020   Biso      1.000     N          -0.085725           
         O1        1.0000    0.21840   0.70750   0.38553   Biso      1.000     O          -0.553272           
         O2        1.0000    0.28160   0.20750   0.61447   Biso      1.000     O          -0.553664           
         O3        1.0000    0.30140   0.36171   0.45180   Biso      1.000     O          -0.5405   
         O4        1.0000    0.62977   0.36456   0.53796   Biso      1.000     O          -0.567345           
         O5        1.0000    0.80140   0.13829   0.45180   Biso      1.000     O          -0.541014           
         O6        1.0000    0.71840   0.79250   0.38553   Biso      1.000     O          -0.553277           
         O7        1.0000    0.37023   0.63544   0.46204   Biso      1.000     O          -0.5674359999999999           
         O8        1.0000    0.12600   0.31981   0.42020   Biso      1.000     O          -0.594538           
         O9        1.0000    0.19860   0.86171   0.54820   Biso      1.000     O          -0.544053           
         O10       1.0000    0.80140   0.86171   0.95180   Biso      1.000     O          -0.544477           
         O11       1.0000    0.62600   0.18019   0.42020   Biso      1.000     O          -0.5947560000000001           
         O12       1.0000    0.78160   0.29250   0.61447   Biso      1.000     O          -0.553593           
         O13       1.0000    0.78160   0.70750   0.11447   Biso      1.000     O          -0.553218           
         O14       1.0000    0.37400   0.18019   0.07980   Biso      1.000     O          -0.594625           
         O15       1.0000    0.12977   0.86456   0.03796   Biso      1.000     O          -0.567386           
         O16       1.0000    0.19860   0.13829   0.04820   Biso      1.000     O          -0.54084  
         O17       1.0000    0.69860   0.36171   0.04820   Biso      1.000     O          -0.540676           
         O18       1.0000    0.62977   0.63544   0.03796   Biso      1.000     O          -0.567504           
         O19       1.0000    0.87400   0.31981   0.07980   Biso      1.000     O          -0.594566           
         O20       1.0000    0.37400   0.81981   0.57980   Biso      1.000     O          -0.5954119999999999           
         O21       1.0000    0.71840   0.20750   0.88553   Biso      1.000     O          -0.553625           
         O22       1.0000    0.12977   0.13544   0.53796   Biso      1.000     O          -0.567362           
         O23       1.0000    0.28160   0.79250   0.11447   Biso      1.000     O          -0.553329           
         O24       1.0000    0.12600   0.68019   0.92020   Biso      1.000     O          -0.595025           
         O25       1.0000    0.37023   0.36456   0.96204   Biso      1.000     O          -0.5673060000000001           
         O26       1.0000    0.30140   0.63829   0.95180   Biso      1.000     O          -0.542219           
         O27       1.0000    0.69860   0.63829   0.54820   Biso      1.000     O          -0.543111           
         O28       1.0000    0.87023   0.13544   0.96204   Biso      1.000     O          -0.567357           
         O29       1.0000    0.62600   0.81981   0.92020   Biso      1.000     O          -0.595564           
         O30       1.0000    0.21840   0.29250   0.88553   Biso      1.000     O          -0.553613           
         O31       1.0000    0.87023   0.86456   0.46204   Biso      1.000     O          -0.567434           
         O32       1.0000    0.87400   0.68019   0.57980   Biso      1.000     O          -0.59534 