
##########################################################################
#               Crystallographic Information Format file
#               Produced by PyCifRW module
#
#  This is a CIF file.  CIF has been adopted by the International
#  Union of Crystallography as the standard for data archiving and
#  transmission.
#
#  For information on this file format, follow the CIF links at
#  http://www.iucr.org
##########################################################################

data_image0

_cell_length_a                          14.561
_cell_length_b                          18.078
_cell_length_c                          12.845
_cell_angle_alpha                       90
_cell_angle_beta                        116.602
_cell_angle_gamma                       90
_symmetry_space_group_name_H-M          'P 1'
_symmetry_int_tables_number             1
loop_
  _symmetry_equiv_pos_as_xyz
         'x, y, z' 
loop_
  _atom_site_label
  _atom_site_occupancy
  _atom_site_fract_x
  _atom_site_fract_y
  _atom_site_fract_z
  _atom_site_thermal_displace_type
  _atom_site_B_iso_or_equiv
  _atom_site_type_symbol
  _atom_site_charge
         C1        1.0000    0.10260   0.70053   0.48050   Biso      1.000     C          0.267456  
         C2        1.0000    0.86110   0.21324   0.64740   Biso      1.000     C          -0.135661           
         C3        1.0000    0.83850   0.19962   0.73980   Biso      1.000     C          -0.001921           
         C4        1.0000    0.37480   0.21444   0.11890   Biso      1.000     C          0.038406  
         C5        1.0000    0.82840   0.25858   0.80340   Biso      1.000     C          -0.132913           
         C6        1.0000    0.84230   0.33055   0.77600   Biso      1.000     C          0.004036  
         C7        1.0000    0.36730   0.15640   0.18460   Biso      1.000     C          -0.160125           
         C8        1.0000    0.86730   0.34360   0.68460   Biso      1.000     C          -0.160266           
         C9        1.0000    0.87480   0.28556   0.61890   Biso      1.000     C          0.038211  
         C10       1.0000    0.89740   0.29947   0.51950   Biso      1.000     C          0.267644  
         C11       1.0000    0.34230   0.16945   0.27600   Biso      1.000     C          0.004129  
         C12       1.0000    0.32840   0.24142   0.30340   Biso      1.000     C          -0.133109           
         C13       1.0000    0.33850   0.30038   0.23980   Biso      1.000     C          -0.002171           
         C14       1.0000    0.36110   0.28676   0.14740   Biso      1.000     C          -0.135691           
         C15       1.0000    0.33190   0.10492   0.34340   Biso      1.000     C          0.571551  
         C16       1.0000    0.32110   0.37861   0.26820   Biso      1.000     C          0.578575  
         C17       1.0000    0.39740   0.20053   0.01950   Biso      1.000     C          0.267406  
         C18       1.0000    0.33190   0.89508   0.84340   Biso      1.000     C          0.571545  
         C19       1.0000    0.83190   0.39508   0.84340   Biso      1.000     C          0.571582  
         C20       1.0000    0.82110   0.87861   0.26820   Biso      1.000     C          0.578548  
         C21       1.0000    0.36110   0.71324   0.64740   Biso      1.000     C          -0.135689           
         C22       1.0000    0.33850   0.69962   0.73980   Biso      1.000     C          -0.002158           
         C23       1.0000    0.32840   0.75858   0.80340   Biso      1.000     C          -0.132991           
         C24       1.0000    0.34230   0.83055   0.77600   Biso      1.000     C          0.004171  
         C25       1.0000    0.89740   0.70053   0.01950   Biso      1.000     C          0.267455  
         C26       1.0000    0.36730   0.84360   0.68460   Biso      1.000     C          -0.16014  
         C27       1.0000    0.37480   0.78556   0.61890   Biso      1.000     C          0.03835   
         C28       1.0000    0.39740   0.79947   0.51950   Biso      1.000     C          0.267451  
         C29       1.0000    0.87480   0.71444   0.11890   Biso      1.000     C          0.03834   
         C30       1.0000    0.86730   0.65640   0.18460   Biso      1.000     C          -0.160189           
         C31       1.0000    0.84230   0.66945   0.27600   Biso      1.000     C          0.004113  
         C32       1.0000    0.82840   0.74142   0.30340   Biso      1.000     C          -0.132945           
         C33       1.0000    0.83850   0.80038   0.23980   Biso      1.000     C          -0.002086           
         C34       1.0000    0.86110   0.78676   0.14740   Biso      1.000     C          -0.135634           
         C35       1.0000    0.83190   0.60492   0.34340   Biso      1.000     C          0.571601  
         C36       1.0000    0.82110   0.12139   0.76820   Biso      1.000     C          0.578727  
         C37       1.0000    0.12520   0.71444   0.38110   Biso      1.000     C          0.038336  
         C38       1.0000    0.32110   0.62139   0.76820   Biso      1.000     C          0.578566  
         C39       1.0000    0.66810   0.89508   0.65660   Biso      1.000     C          0.571541  
         C40       1.0000    0.67890   0.62139   0.73180   Biso      1.000     C          0.578564  
         C41       1.0000    0.17890   0.12139   0.73180   Biso      1.000     C          0.578719  
         C42       1.0000    0.16810   0.39508   0.65660   Biso      1.000     C          0.571582  
         C43       1.0000    0.67160   0.24142   0.19660   Biso      1.000     C          -0.133114           
         C44       1.0000    0.13890   0.21324   0.85260   Biso      1.000     C          -0.135648           
         C45       1.0000    0.16150   0.19962   0.76020   Biso      1.000     C          -0.001939           
         C46       1.0000    0.66150   0.30038   0.26020   Biso      1.000     C          -0.002174           
         C47       1.0000    0.17160   0.25858   0.69660   Biso      1.000     C          -0.132917           
         C48       1.0000    0.15770   0.33055   0.72400   Biso      1.000     C          0.004044  
         C49       1.0000    0.63890   0.28676   0.35260   Biso      1.000     C          -0.13569  
         C50       1.0000    0.13270   0.34360   0.81540   Biso      1.000     C          -0.160251           
         C51       1.0000    0.12520   0.28556   0.88110   Biso      1.000     C          0.03822   
         C52       1.0000    0.10260   0.29947   0.98050   Biso      1.000     C          0.267638  
         C53       1.0000    0.66810   0.10492   0.15660   Biso      1.000     C          0.571544  
         C54       1.0000    0.67890   0.37861   0.23180   Biso      1.000     C          0.578578  
         C55       1.0000    0.63270   0.15640   0.31540   Biso      1.000     C          -0.160127           
         C56       1.0000    0.62520   0.21444   0.38110   Biso      1.000     C          0.038413  
         C57       1.0000    0.65770   0.16945   0.22400   Biso      1.000     C          0.004128  
         C58       1.0000    0.67160   0.75858   0.69660   Biso      1.000     C          -0.132993           
         C59       1.0000    0.63890   0.71324   0.85260   Biso      1.000     C          -0.135693           
         C60       1.0000    0.66150   0.69962   0.76020   Biso      1.000     C          -0.002159           
         C61       1.0000    0.15770   0.66945   0.22400   Biso      1.000     C          0.00411   
         C62       1.0000    0.60260   0.20053   0.48050   Biso      1.000     C          0.267402  
         C63       1.0000    0.65770   0.83055   0.72400   Biso      1.000     C          0.004174  
         C64       1.0000    0.17160   0.74142   0.19660   Biso      1.000     C          -0.132942           
         C65       1.0000    0.13270   0.65640   0.31540   Biso      1.000     C          -0.160194           
         C66       1.0000    0.63270   0.84360   0.81540   Biso      1.000     C          -0.160138           
         C67       1.0000    0.60260   0.79947   0.98050   Biso      1.000     C          0.26745   
         C68       1.0000    0.16150   0.80038   0.26020   Biso      1.000     C          -0.002081           
         C69       1.0000    0.13890   0.78676   0.35260   Biso      1.000     C          -0.135645           
         C70       1.0000    0.16810   0.60492   0.15660   Biso      1.000     C          0.571602  
         C71       1.0000    0.17890   0.87861   0.23180   Biso      1.000     C          0.578579  
         C72       1.0000    0.62520   0.78556   0.88110   Biso      1.000     C          0.038346  
         Cd1       1.0000    0.80723   0.52135   0.94768   Biso      1.000     Cd          1.028408  
         Cd2       1.0000    0.50000   0.75333   0.25000   Biso      1.000     Cd          1.021592  
         Cd3       1.0000    0.00000   0.25333   0.25000   Biso      1.000     Cd          1.025761  
         Cd4       1.0000    0.69277   0.02135   0.55232   Biso      1.000     Cd          1.028247  
         Cd5       1.0000    0.19277   0.52135   0.55232   Biso      1.000     Cd          1.028416  
         Cd6       1.0000    0.30723   0.02135   0.94768   Biso      1.000     Cd          1.028332  
         Cd7       1.0000    0.00000   0.74667   0.75000   Biso      1.000     Cd          1.021979  
         Cd8       1.0000    0.19277   0.47865   0.05232   Biso      1.000     Cd          1.028595  
         Cd9       1.0000    0.50000   0.24667   0.75000   Biso      1.000     Cd          1.021712  
         Cd10      1.0000    0.69277   0.97865   0.05232   Biso      1.000     Cd          1.028639  
         Cd11      1.0000    0.80723   0.47865   0.44768   Biso      1.000     Cd          1.028597  
         Cd12      1.0000    0.30723   0.97865   0.44768   Biso      1.000     Cd          1.028662  
         H1        1.0000    0.12090   0.60830   0.33220   Biso      1.000     H          0.108308  
         H2        1.0000    0.63290   0.67390   0.89580   Biso      1.000     H          0.125236  
         H3        1.0000    0.63290   0.32610   0.39580   Biso      1.000     H          0.125246  
         H4        1.0000    0.12090   0.39170   0.83220   Biso      1.000     H          0.108285  
         H5        1.0000    0.62090   0.10830   0.33220   Biso      1.000     H          0.108359  
         H6        1.0000    0.13290   0.17390   0.89580   Biso      1.000     H          0.125255  
         H7        1.0000    0.81240   0.24970   0.86470   Biso      1.000     H          0.119993  
         H8        1.0000    0.87910   0.39170   0.66780   Biso      1.000     H          0.10828   
         H9        1.0000    0.37910   0.10830   0.16780   Biso      1.000     H          0.10836   
         H10       1.0000    0.68760   0.25030   0.13530   Biso      1.000     H          0.120045  
         H11       1.0000    0.18760   0.24970   0.63530   Biso      1.000     H          0.119984  
         H12       1.0000    0.31240   0.25030   0.36470   Biso      1.000     H          0.120046  
         H13       1.0000    0.86710   0.17390   0.60420   Biso      1.000     H          0.125249  
         H14       1.0000    0.86710   0.82610   0.10420   Biso      1.000     H          0.125268  
         H15       1.0000    0.68760   0.74970   0.63530   Biso      1.000     H          0.120096  
         H16       1.0000    0.81240   0.75030   0.36470   Biso      1.000     H          0.120091  
         H17       1.0000    0.36710   0.67390   0.60420   Biso      1.000     H          0.125239  
         H18       1.0000    0.31240   0.74970   0.86470   Biso      1.000     H          0.120101  
         H19       1.0000    0.37910   0.89170   0.66780   Biso      1.000     H          0.108349  
         H20       1.0000    0.62090   0.89170   0.83220   Biso      1.000     H          0.108348  
         H21       1.0000    0.13290   0.82610   0.39580   Biso      1.000     H          0.125268  
         H22       1.0000    0.18760   0.75030   0.13530   Biso      1.000     H          0.120097  
         H23       1.0000    0.87910   0.60830   0.16780   Biso      1.000     H          0.108309  
         H24       1.0000    0.36710   0.32610   0.10420   Biso      1.000     H          0.125245  
         N1        1.0000    0.56020   0.78548   0.11690   Biso      1.000     N          -0.089499           
         N2        1.0000    0.08220   0.64428   0.61590   Biso      1.000     N          -0.067925           
         N3        1.0000    0.10990   0.63396   0.53000   Biso      1.000     N          -0.266129           
         N4        1.0000    0.06020   0.71452   0.61690   Biso      1.000     N          -0.089475           
         N5        1.0000    0.07190   0.75139   0.53260   Biso      1.000     N          -0.232492           
         N6        1.0000    0.58220   0.85572   0.11590   Biso      1.000     N          -0.067834           
         N7        1.0000    0.60990   0.86604   0.03000   Biso      1.000     N          -0.266146           
         N8        1.0000    0.57190   0.25139   0.53260   Biso      1.000     N          -0.232684           
         N9        1.0000    0.57190   0.74861   0.03260   Biso      1.000     N          -0.232618           
         N10       1.0000    0.56020   0.21452   0.61690   Biso      1.000     N          -0.089507           
         N11       1.0000    0.58220   0.14428   0.61590   Biso      1.000     N          -0.067663           
         N12       1.0000    0.89010   0.63396   0.97000   Biso      1.000     N          -0.26615  
         N13       1.0000    0.91780   0.35572   0.38410   Biso      1.000     N          -0.067879           
         N14       1.0000    0.10990   0.36604   0.03000   Biso      1.000     N          -0.26589  
         N15       1.0000    0.08220   0.35572   0.11590   Biso      1.000     N          -0.067853           
         N16       1.0000    0.91780   0.64428   0.88410   Biso      1.000     N          -0.067906           
         N17       1.0000    0.93980   0.71452   0.88310   Biso      1.000     N          -0.089474           
         N18       1.0000    0.92810   0.75139   0.96740   Biso      1.000     N          -0.232483           
         N19       1.0000    0.42810   0.74861   0.46740   Biso      1.000     N          -0.232636           
         N20       1.0000    0.43980   0.78548   0.38310   Biso      1.000     N          -0.089478           
         N21       1.0000    0.41780   0.85572   0.38410   Biso      1.000     N          -0.067818           
         N22       1.0000    0.39010   0.86604   0.47000   Biso      1.000     N          -0.266146           
         N23       1.0000    0.89010   0.36604   0.47000   Biso      1.000     N          -0.26587  
         N24       1.0000    0.92810   0.24861   0.46740   Biso      1.000     N          -0.23226  
         N25       1.0000    0.06020   0.28548   0.11690   Biso      1.000     N          -0.089978           
         N26       1.0000    0.07190   0.24861   0.03260   Biso      1.000     N          -0.232231           
         N27       1.0000    0.39010   0.13396   0.97000   Biso      1.000     N          -0.266121           
         N28       1.0000    0.41780   0.14428   0.88410   Biso      1.000     N          -0.067694           
         N29       1.0000    0.43980   0.21452   0.88310   Biso      1.000     N          -0.089486           
         N30       1.0000    0.42810   0.25139   0.96740   Biso      1.000     N          -0.23266  
         N31       1.0000    0.60990   0.13396   0.53000   Biso      1.000     N          -0.266084           
         N32       1.0000    0.93980   0.28548   0.38310   Biso      1.000     N          -0.08996  
         O1        1.0000    0.17023   0.06998   0.79400   Biso      1.000     O          -0.602485           
         O2        1.0000    0.71194   0.11419   0.09195   Biso      1.000     O          -0.567287           
         O3        1.0000    0.70140   0.38789   0.14980   Biso      1.000     O          -0.539846           
         O4        1.0000    0.67023   0.43002   0.29400   Biso      1.000     O          -0.602063           
         O5        1.0000    0.21194   0.38581   0.59195   Biso      1.000     O          -0.567289           
         O6        1.0000    0.13597   0.45747   0.66740   Biso      1.000     O          -0.556939           
         O7        1.0000    0.20140   0.11211   0.64980   Biso      1.000     O          -0.541715           
         O8        1.0000    0.63597   0.04253   0.16740   Biso      1.000     O          -0.556838           
         O9        1.0000    0.28806   0.88581   0.90805   Biso      1.000     O          -0.56728  
         O10       1.0000    0.20140   0.88789   0.14980   Biso      1.000     O          -0.540057           
         O11       1.0000    0.29860   0.61211   0.85020   Biso      1.000     O          -0.53972  
         O12       1.0000    0.32977   0.56998   0.70600   Biso      1.000     O          -0.60201  
         O13       1.0000    0.82977   0.06998   0.70600   Biso      1.000     O          -0.602567           
         O14       1.0000    0.79860   0.11211   0.85020   Biso      1.000     O          -0.541901           
         O15       1.0000    0.78806   0.38581   0.90805   Biso      1.000     O          -0.56729  
         O16       1.0000    0.86403   0.54253   0.33260   Biso      1.000     O          -0.556966           
         O17       1.0000    0.78806   0.61419   0.40805   Biso      1.000     O          -0.567211           
         O18       1.0000    0.79860   0.88789   0.35020   Biso      1.000     O          -0.539891           
         O19       1.0000    0.82977   0.93002   0.20600   Biso      1.000     O          -0.602098           
         O20       1.0000    0.17023   0.93002   0.29400   Biso      1.000     O          -0.602155           
         O21       1.0000    0.86403   0.45747   0.83260   Biso      1.000     O          -0.556943           
         O22       1.0000    0.36403   0.04253   0.33260   Biso      1.000     O          -0.556826           
         O23       1.0000    0.28806   0.11419   0.40805   Biso      1.000     O          -0.567299           
         O24       1.0000    0.29860   0.38789   0.35020   Biso      1.000     O          -0.539849           
         O25       1.0000    0.32977   0.43002   0.20600   Biso      1.000     O          -0.602064           
         O26       1.0000    0.36403   0.95747   0.83260   Biso      1.000     O          -0.556825           
         O27       1.0000    0.71194   0.88581   0.59195   Biso      1.000     O          -0.567293           
         O28       1.0000    0.63597   0.95747   0.66740   Biso      1.000     O          -0.556809           
         O29       1.0000    0.13597   0.54253   0.16740   Biso      1.000     O          -0.556967           
         O30       1.0000    0.21194   0.61419   0.09195   Biso      1.000     O          -0.567211           
         O31       1.0000    0.67023   0.56998   0.79400   Biso      1.000     O          -0.602007           
         O32       1.0000    0.70140   0.61211   0.64980   Biso      1.000     O          -0.539711 