
##########################################################################
#               Crystallographic Information Format file
#               Produced by PyCifRW module
#
#  This is a CIF file.  CIF has been adopted by the International
#  Union of Crystallography as the standard for data archiving and
#  transmission.
#
#  For information on this file format, follow the CIF links at
#  http://www.iucr.org
##########################################################################

data_image0

_cell_length_a                          10.893
_cell_length_b                          6.618
_cell_length_c                          17.337
_cell_angle_alpha                       90
_cell_angle_beta                        106.885
_cell_angle_gamma                       90
_symmetry_space_group_name_H-M          'P 1'
_symmetry_int_tables_number             1
loop_
  _symmetry_equiv_pos_as_xyz
         'x, y, z' 
loop_
  _atom_site_label
  _atom_site_occupancy
  _atom_site_fract_x
  _atom_site_fract_y
  _atom_site_fract_z
  _atom_site_thermal_displace_type
  _atom_site_B_iso_or_equiv
  _atom_site_type_symbol
  _atom_site_charge
         C1        1.0000    0.82830   0.74730   0.30340   Biso      1.000     C          -0.183586           
         C2        1.0000    0.15360   0.93150   0.75640   Biso      1.000     C          -0.123626           
         C3        1.0000    0.21350   0.12020   0.76120   Biso      1.000     C          -0.03897  
         C4        1.0000    0.92790   0.70210   0.87170   Biso      1.000     C          0.085177  
         C5        1.0000    0.96620   0.84930   0.94010   Biso      1.000     C          0.055331  
         C6        1.0000    0.74260   0.66570   0.45860   Biso      1.000     C          0.616523  
         C7        1.0000    0.87640   0.58180   0.47780   Biso      1.000     C          -0.04936  
         C8        1.0000    0.96620   0.65070   0.44010   Biso      1.000     C          0.055334  
         C9        1.0000    0.92790   0.79790   0.37170   Biso      1.000     C          0.085174  
         C10       1.0000    0.91230   0.06970   0.03670   Biso      1.000     C          -0.166076           
         C11       1.0000    0.82830   0.75270   0.80340   Biso      1.000     C          -0.183582           
         C12       1.0000    0.87640   0.91820   0.97780   Biso      1.000     C          -0.049358           
         C13       1.0000    0.84640   0.06850   0.24360   Biso      1.000     C          -0.123626           
         C14       1.0000    0.74260   0.83430   0.95860   Biso      1.000     C          0.616515  
         C15       1.0000    0.94560   0.12090   0.31090   Biso      1.000     C          -0.070101           
         C16       1.0000    0.98860   0.98370   0.37480   Biso      1.000     C          -0.131441           
         C17       1.0000    0.67740   0.82200   0.16550   Biso      1.000     C          0.631242  
         C18       1.0000    0.91230   0.43030   0.53670   Biso      1.000     C          -0.166078           
         C19       1.0000    0.25740   0.33430   0.54140   Biso      1.000     C          0.616521  
         C20       1.0000    0.17170   0.25270   0.69660   Biso      1.000     C          -0.183584           
         C21       1.0000    0.07210   0.20210   0.62830   Biso      1.000     C          0.085174  
         C22       1.0000    0.78650   0.87980   0.23880   Biso      1.000     C          -0.038971           
         C23       1.0000    0.03380   0.34930   0.55990   Biso      1.000     C          0.055342  
         C24       1.0000    0.05440   0.87910   0.68910   Biso      1.000     C          -0.070101           
         C25       1.0000    0.78650   0.62020   0.73880   Biso      1.000     C          -0.038974           
         C26       1.0000    0.67740   0.67800   0.66550   Biso      1.000     C          0.631249  
         C27       1.0000    0.08770   0.56970   0.46330   Biso      1.000     C          -0.16607  
         C28       1.0000    0.32260   0.17800   0.83450   Biso      1.000     C          0.631242  
         C29       1.0000    0.01140   0.01630   0.62520   Biso      1.000     C          -0.131442           
         C30       1.0000    0.98860   0.51630   0.87480   Biso      1.000     C          -0.131436           
         C31       1.0000    0.25740   0.16570   0.04140   Biso      1.000     C          0.616515  
         C32       1.0000    0.12360   0.08180   0.02220   Biso      1.000     C          -0.049361           
         C33       1.0000    0.03380   0.15070   0.05990   Biso      1.000     C          0.055338  
         C34       1.0000    0.17170   0.24730   0.19660   Biso      1.000     C          -0.183583           
         C35       1.0000    0.07210   0.29790   0.12830   Biso      1.000     C          0.085177  
         C36       1.0000    0.21350   0.37980   0.26120   Biso      1.000     C          -0.038974           
         C37       1.0000    0.15360   0.56850   0.25640   Biso      1.000     C          -0.123629           
         C38       1.0000    0.94560   0.37910   0.81090   Biso      1.000     C          -0.070102           
         C39       1.0000    0.05440   0.62090   0.18910   Biso      1.000     C          -0.070099           
         C40       1.0000    0.01140   0.48370   0.12520   Biso      1.000     C          -0.131436           
         C41       1.0000    0.84640   0.43150   0.74360   Biso      1.000     C          -0.123626           
         C42       1.0000    0.32260   0.32200   0.33450   Biso      1.000     C          0.631251  
         C43       1.0000    0.08770   0.93030   0.96330   Biso      1.000     C          -0.166068           
         C44       1.0000    0.12360   0.41820   0.52220   Biso      1.000     C          -0.049362           
         H1        1.0000    0.78890   0.87820   0.80100   Biso      1.000     H          0.120237  
         H2        1.0000    0.34550   0.68720   0.95330   Biso      1.000     H          0.397528  
         H3        1.0000    0.81930   0.34050   0.70110   Biso      1.000     H          0.11011   
         H4        1.0000    0.65450   0.18720   0.54670   Biso      1.000     H          0.397536  
         H5        1.0000    0.05750   0.48300   0.91900   Biso      1.000     H          0.116391  
         H6        1.0000    0.98390   0.25260   0.81370   Biso      1.000     H          0.105127  
         H7        1.0000    0.85190   0.11690   0.06080   Biso      1.000     H          0.119143  
         H8        1.0000    0.05750   0.01700   0.41900   Biso      1.000     H          0.11639   
         H9        1.0000    0.14810   0.61690   0.43920   Biso      1.000     H          0.119144  
         H10       1.0000    0.94250   0.98300   0.58100   Biso      1.000     H          0.116389  
         H11       1.0000    0.65450   0.31280   0.04670   Biso      1.000     H          0.397528  
         H12       1.0000    0.21110   0.12180   0.19900   Biso      1.000     H          0.120238  
         H13       1.0000    0.18070   0.65950   0.29890   Biso      1.000     H          0.11011   
         H14       1.0000    0.01610   0.74740   0.18630   Biso      1.000     H          0.105127  
         H15       1.0000    0.94250   0.51700   0.08100   Biso      1.000     H          0.116391  
         H16       1.0000    0.14810   0.88310   0.93920   Biso      1.000     H          0.119143  
         H17       1.0000    0.01610   0.75260   0.68630   Biso      1.000     H          0.105126  
         H18       1.0000    0.18070   0.84050   0.79890   Biso      1.000     H          0.110111  
         H19       1.0000    0.21110   0.37820   0.69900   Biso      1.000     H          0.120236  
         H20       1.0000    0.34550   0.81280   0.45330   Biso      1.000     H          0.397535  
         H21       1.0000    0.78890   0.62180   0.30100   Biso      1.000     H          0.120237  
         H22       1.0000    0.81930   0.15950   0.20110   Biso      1.000     H          0.110111  
         H23       1.0000    0.98390   0.24740   0.31370   Biso      1.000     H          0.105127  
         H24       1.0000    0.85190   0.38310   0.56080   Biso      1.000     H          0.119145  
         Mn1       1.0000    0.46859   0.49677   0.08739   Biso      1.000     Mn          1.103556  
         Mn2       1.0000    0.53141   0.50323   0.91261   Biso      1.000     Mn          1.103553  
         Mn3       1.0000    0.50000   0.50000   0.50000   Biso      1.000     Mn          1.089139  
         Mn4       1.0000    0.53141   0.99677   0.41261   Biso      1.000     Mn          1.103593  
         Mn5       1.0000    0.50000   0.00000   0.00000   Biso      1.000     Mn          1.089126  
         Mn6       1.0000    0.46859   0.00323   0.58739   Biso      1.000     Mn          1.103581  
         O1        1.0000    0.27340   0.35280   0.03820   Biso      1.000     O          -0.578098           
         O2        1.0000    0.34850   0.03850   0.06010   Biso      1.000     O          -0.61227  
         O3        1.0000    0.36280   0.14540   0.33810   Biso      1.000     O          -0.594321           
         O4        1.0000    0.35990   0.45440   0.38620   Biso      1.000     O          -0.576023           
         O5        1.0000    0.56240   0.31270   0.01860   Biso      1.000     O          -0.881085           
         O6        1.0000    0.72660   0.85280   0.46180   Biso      1.000     O          -0.578099           
         O7        1.0000    0.65150   0.53850   0.43990   Biso      1.000     O          -0.612271           
         O8        1.0000    0.63720   0.64540   0.16190   Biso      1.000     O          -0.59432  
         O9        1.0000    0.27340   0.14720   0.53820   Biso      1.000     O          -0.5781   
         O10       1.0000    0.72660   0.64720   0.96180   Biso      1.000     O          -0.578098           
         O11       1.0000    0.65150   0.96150   0.93990   Biso      1.000     O          -0.612269           
         O12       1.0000    0.63720   0.85460   0.66190   Biso      1.000     O          -0.594321           
         O13       1.0000    0.64010   0.54560   0.61380   Biso      1.000     O          -0.576022           
         O14       1.0000    0.43760   0.68730   0.98140   Biso      1.000     O          -0.881085           
         O15       1.0000    0.56240   0.18730   0.51860   Biso      1.000     O          -0.881091           
         O16       1.0000    0.35990   0.04560   0.88620   Biso      1.000     O          -0.576019           
         O17       1.0000    0.36280   0.35460   0.83810   Biso      1.000     O          -0.594319           
         O18       1.0000    0.34850   0.46150   0.56010   Biso      1.000     O          -0.61227  
         O19       1.0000    0.64010   0.95440   0.11380   Biso      1.000     O          -0.576018           
         O20       1.0000    0.43760   0.81270   0.48140   Biso      1.000     O          -0.881091 