
##########################################################################
#               Crystallographic Information Format file
#               Produced by PyCifRW module
#
#  This is a CIF file.  CIF has been adopted by the International
#  Union of Crystallography as the standard for data archiving and
#  transmission.
#
#  For information on this file format, follow the CIF links at
#  http://www.iucr.org
##########################################################################

data_image0

_cell_length_a                          18.5185
_cell_length_b                          18.5185
_cell_length_c                          19.1215
_cell_angle_alpha                       90
_cell_angle_beta                        90
_cell_angle_gamma                       120
_symmetry_space_group_name_H-M          'P 1'
_symmetry_int_tables_number             1
loop_
  _symmetry_equiv_pos_as_xyz
         'x, y, z' 
loop_
  _atom_site_label
  _atom_site_occupancy
  _atom_site_fract_x
  _atom_site_fract_y
  _atom_site_fract_z
  _atom_site_thermal_displace_type
  _atom_site_B_iso_or_equiv
  _atom_site_type_symbol
  _atom_site_charge
         C1        1.0000    0.16800   0.33600   0.67090   Biso      1.000     C          -0.230779           
         C2        1.0000    0.09000   0.64150   0.94598   Biso      1.000     C          0.603969  
         C3        1.0000    0.14437   0.72647   0.91506   Biso      1.000     C          -0.010279           
         C4        1.0000    0.83200   0.16800   0.17090   Biso      1.000     C          -0.230871           
         C5        1.0000    0.77855   0.22145   0.05610   Biso      1.000     C          -0.111579           
         C6        1.0000    0.11790   0.75350   0.85789   Biso      1.000     C          -0.085032           
         C7        1.0000    0.83200   0.66400   0.17090   Biso      1.000     C          -0.230793           
         C8        1.0000    0.55150   0.91000   0.94598   Biso      1.000     C          0.603968  
         C9        1.0000    0.58210   0.85563   0.91506   Biso      1.000     C          -0.010295           
         C10       1.0000    0.77855   0.55710   0.05610   Biso      1.000     C          -0.111578           
         C11       1.0000    0.63560   0.88210   0.85789   Biso      1.000     C          -0.085061           
         C12       1.0000    0.66400   0.83200   0.67090   Biso      1.000     C          -0.230764           
         C13       1.0000    0.55710   0.77855   0.55610   Biso      1.000     C          -0.111573           
         C14       1.0000    0.44850   0.35850   0.44598   Biso      1.000     C          0.603978  
         C15       1.0000    0.41790   0.27353   0.41506   Biso      1.000     C          -0.010281           
         C16       1.0000    0.16800   0.83200   0.67090   Biso      1.000     C          -0.230768           
         C17       1.0000    0.36440   0.24650   0.35789   Biso      1.000     C          -0.085061           
         C18       1.0000    0.22145   0.77855   0.55610   Biso      1.000     C          -0.111572           
         C19       1.0000    0.64150   0.09000   0.44598   Biso      1.000     C          0.603983  
         C20       1.0000    0.72647   0.14437   0.41506   Biso      1.000     C          -0.010302           
         C21       1.0000    0.22145   0.44290   0.55610   Biso      1.000     C          -0.11158  
         C22       1.0000    0.75350   0.11790   0.35789   Biso      1.000     C          -0.085048           
         C23       1.0000    0.16800   0.33600   0.82910   Biso      1.000     C          -0.230792           
         C24       1.0000    0.91000   0.55150   0.44598   Biso      1.000     C          0.603976  
         C25       1.0000    0.85563   0.58210   0.41506   Biso      1.000     C          -0.010293           
         C26       1.0000    0.22145   0.44290   0.94390   Biso      1.000     C          -0.111576           
         C27       1.0000    0.88210   0.63560   0.35789   Biso      1.000     C          -0.085074           
         C28       1.0000    0.16800   0.83200   0.82910   Biso      1.000     C          -0.230797           
         C29       1.0000    0.44290   0.22145   0.05610   Biso      1.000     C          -0.111578           
         C30       1.0000    0.24650   0.36440   0.85789   Biso      1.000     C          -0.085082           
         C31       1.0000    0.33600   0.16800   0.17090   Biso      1.000     C          -0.230808           
         C32       1.0000    0.27353   0.41790   0.91506   Biso      1.000     C          -0.010285           
         C33       1.0000    0.44850   0.35850   0.05402   Biso      1.000     C          0.603964  
         C34       1.0000    0.41790   0.27353   0.08494   Biso      1.000     C          -0.010278           
         C35       1.0000    0.14437   0.41790   0.58494   Biso      1.000     C          -0.010293           
         C36       1.0000    0.09000   0.44850   0.55402   Biso      1.000     C          0.603977  
         C37       1.0000    0.36440   0.24650   0.14211   Biso      1.000     C          -0.085051           
         C38       1.0000    0.24650   0.88210   0.64211   Biso      1.000     C          -0.085077           
         C39       1.0000    0.64150   0.09000   0.05402   Biso      1.000     C          0.603967  
         C40       1.0000    0.72647   0.14437   0.08494   Biso      1.000     C          -0.010289           
         C41       1.0000    0.27353   0.85563   0.58494   Biso      1.000     C          -0.010291           
         C42       1.0000    0.75350   0.11790   0.14211   Biso      1.000     C          -0.085024           
         C43       1.0000    0.35850   0.91000   0.55402   Biso      1.000     C          0.603981  
         C44       1.0000    0.63560   0.75350   0.64211   Biso      1.000     C          -0.085046           
         C45       1.0000    0.91000   0.55150   0.05402   Biso      1.000     C          0.603975  
         C46       1.0000    0.22145   0.77855   0.94390   Biso      1.000     C          -0.111569           
         C47       1.0000    0.85563   0.58210   0.08494   Biso      1.000     C          -0.010296           
         C48       1.0000    0.58210   0.72647   0.58494   Biso      1.000     C          -0.01028  
         C49       1.0000    0.55150   0.64150   0.55402   Biso      1.000     C          0.603977  
         C50       1.0000    0.64150   0.55150   0.44598   Biso      1.000     C          0.603977  
         C51       1.0000    0.72647   0.58210   0.41506   Biso      1.000     C          -0.010298           
         C52       1.0000    0.19920   0.01640   0.25000   Biso      1.000     C          -0.814326           
         C53       1.0000    0.75350   0.63560   0.35789   Biso      1.000     C          -0.085057           
         C54       1.0000    0.91000   0.35850   0.44598   Biso      1.000     C          0.603976  
         C55       1.0000    0.85563   0.27353   0.41506   Biso      1.000     C          -0.010285           
         C56       1.0000    0.88210   0.24650   0.35789   Biso      1.000     C          -0.085038           
         C57       1.0000    0.44850   0.09000   0.44598   Biso      1.000     C          0.603985  
         C58       1.0000    0.41790   0.14437   0.41506   Biso      1.000     C          -0.010299           
         C59       1.0000    0.36440   0.11790   0.35789   Biso      1.000     C          -0.085057           
         C60       1.0000    0.35850   0.44850   0.94598   Biso      1.000     C          0.60397   
         C61       1.0000    0.88210   0.63560   0.14211   Biso      1.000     C          -0.085086           
         C62       1.0000    0.55150   0.64150   0.94598   Biso      1.000     C          0.603965  
         C63       1.0000    0.11790   0.36440   0.64211   Biso      1.000     C          -0.085057           
         C64       1.0000    0.81720   0.01640   0.25000   Biso      1.000     C          -0.814322           
         C65       1.0000    0.35850   0.44850   0.55402   Biso      1.000     C          0.603976  
         C66       1.0000    0.27353   0.41790   0.58494   Biso      1.000     C          -0.010291           
         C67       1.0000    0.01640   0.19920   0.75000   Biso      1.000     C          -0.814329           
         C68       1.0000    0.19920   0.18280   0.25000   Biso      1.000     C          -0.814328           
         C69       1.0000    0.24650   0.36440   0.64211   Biso      1.000     C          -0.085072           
         C70       1.0000    0.88210   0.24650   0.14211   Biso      1.000     C          -0.085025           
         C71       1.0000    0.75350   0.63560   0.14211   Biso      1.000     C          -0.085066           
         C72       1.0000    0.09000   0.64150   0.55402   Biso      1.000     C          0.603976  
         C73       1.0000    0.14437   0.72647   0.58494   Biso      1.000     C          -0.010279           
         C74       1.0000    0.80080   0.98360   0.75000   Biso      1.000     C          -0.814329           
         C75       1.0000    0.98360   0.80080   0.25000   Biso      1.000     C          -0.81433  
         C76       1.0000    0.11790   0.75350   0.64211   Biso      1.000     C          -0.085046           
         C77       1.0000    0.01640   0.81720   0.75000   Biso      1.000     C          -0.814326           
         C78       1.0000    0.85563   0.27353   0.08494   Biso      1.000     C          -0.01028  
         C79       1.0000    0.80080   0.81720   0.75000   Biso      1.000     C          -0.814322           
         C80       1.0000    0.63560   0.88210   0.64211   Biso      1.000     C          -0.085076           
         C81       1.0000    0.58210   0.72647   0.91506   Biso      1.000     C          -0.010284           
         C82       1.0000    0.55150   0.91000   0.55402   Biso      1.000     C          0.603984  
         C83       1.0000    0.58210   0.85563   0.58494   Biso      1.000     C          -0.010293           
         C84       1.0000    0.91000   0.35850   0.05402   Biso      1.000     C          0.603968  
         C85       1.0000    0.44290   0.22145   0.44390   Biso      1.000     C          -0.111571           
         C86       1.0000    0.81720   0.80080   0.25000   Biso      1.000     C          -0.814325           
         C87       1.0000    0.11790   0.36440   0.85789   Biso      1.000     C          -0.085071           
         C88       1.0000    0.66400   0.83200   0.82910   Biso      1.000     C          -0.230805           
         C89       1.0000    0.63560   0.75350   0.85789   Biso      1.000     C          -0.085035           
         C90       1.0000    0.18280   0.19920   0.75000   Biso      1.000     C          -0.814327           
         C91       1.0000    0.55710   0.77855   0.94390   Biso      1.000     C          -0.111572           
         C92       1.0000    0.72647   0.58210   0.08494   Biso      1.000     C          -0.010289           
         C93       1.0000    0.35850   0.91000   0.94598   Biso      1.000     C          0.603966  
         C94       1.0000    0.27353   0.85563   0.91506   Biso      1.000     C          -0.010281           
         C95       1.0000    0.36440   0.11790   0.14211   Biso      1.000     C          -0.085046           
         C96       1.0000    0.83200   0.66400   0.32910   Biso      1.000     C          -0.230776           
         C97       1.0000    0.33600   0.16800   0.32910   Biso      1.000     C          -0.230763           
         C98       1.0000    0.77855   0.55710   0.44390   Biso      1.000     C          -0.111576           
         C99       1.0000    0.18280   0.98360   0.75000   Biso      1.000     C          -0.814328           
         C100      1.0000    0.24650   0.88210   0.85789   Biso      1.000     C          -0.085051           
         C101      1.0000    0.41790   0.14437   0.08494   Biso      1.000     C          -0.010292           
         C102      1.0000    0.83200   0.16800   0.32910   Biso      1.000     C          -0.230838           
         C103      1.0000    0.09000   0.44850   0.94598   Biso      1.000     C          0.603975  
         C104      1.0000    0.14437   0.41790   0.91506   Biso      1.000     C          -0.010295           
         C105      1.0000    0.44850   0.09000   0.05402   Biso      1.000     C          0.603968  
         C106      1.0000    0.77855   0.22145   0.44390   Biso      1.000     C          -0.111577           
         C107      1.0000    0.64150   0.55150   0.05402   Biso      1.000     C          0.603971  
         C108      1.0000    0.98360   0.18280   0.25000   Biso      1.000     C          -0.814322           
         Cu1       1.0000    0.47642   0.95284   0.05626   Biso      1.000     Cu          0.870872  
         Cu2       1.0000    0.04716   0.52358   0.05626   Biso      1.000     Cu          0.870907  
         Cu3       1.0000    0.52358   0.04716   0.55626   Biso      1.000     Cu          0.871025  
         Cu4       1.0000    0.95284   0.47642   0.55626   Biso      1.000     Cu          0.870947  
         Cu5       1.0000    0.47642   0.52358   0.05626   Biso      1.000     Cu          0.870884  
         Cu6       1.0000    0.04716   0.52358   0.44374   Biso      1.000     Cu          0.870933  
         Cu7       1.0000    0.95284   0.47642   0.94374   Biso      1.000     Cu          0.870919  
         Cu8       1.0000    0.52358   0.04716   0.94374   Biso      1.000     Cu          0.870869  
         Cu9       1.0000    0.52358   0.47642   0.94374   Biso      1.000     Cu          0.870891  
         Cu10      1.0000    0.47642   0.95284   0.44374   Biso      1.000     Cu          0.870986  
         Cu11      1.0000    0.47642   0.52358   0.44374   Biso      1.000     Cu          0.870972  
         Cu12      1.0000    0.52358   0.47642   0.55626   Biso      1.000     Cu          0.870975  
         H1        1.0000    0.99130   0.75640   0.75000   Biso      1.000     H          0.203214  
         H2        1.0000    0.99840   0.83450   0.70820   Biso      1.000     H          0.203303  
         H3        1.0000    0.76510   0.00870   0.75000   Biso      1.000     H          0.203212  
         H4        1.0000    0.28230   0.93540   0.66190   Biso      1.000     H          0.116225  
         H5        1.0000    0.75640   0.76510   0.25000   Biso      1.000     H          0.203208  
         H6        1.0000    0.00870   0.24360   0.25000   Biso      1.000     H          0.203234  
         H7        1.0000    0.65310   0.71770   0.66190   Biso      1.000     H          0.116233  
         H8        1.0000    0.16550   0.16390   0.70820   Biso      1.000     H          0.203307  
         H9        1.0000    0.83610   0.00160   0.70820   Biso      1.000     H          0.203315  
         H10       1.0000    0.23880   0.76120   0.98410   Biso      1.000     H          0.132433  
         H11       1.0000    0.99130   0.23490   0.75000   Biso      1.000     H          0.203212  
         H12       1.0000    0.23880   0.47760   0.98410   Biso      1.000     H          0.132431  
         H13       1.0000    0.52240   0.76120   0.98410   Biso      1.000     H          0.132422  
         H14       1.0000    0.23880   0.47760   0.51590   Biso      1.000     H          0.132429  
         H15       1.0000    0.06460   0.34690   0.66190   Biso      1.000     H          0.116224  
         H16       1.0000    0.76120   0.52240   0.48410   Biso      1.000     H          0.132426  
         H17       1.0000    0.23880   0.76120   0.51590   Biso      1.000     H          0.132435  
         H18       1.0000    0.52240   0.76120   0.51590   Biso      1.000     H          0.132436  
         H19       1.0000    0.76120   0.23880   0.48410   Biso      1.000     H          0.132429  
         H20       1.0000    0.76120   0.52240   0.01590   Biso      1.000     H          0.132428  
         H21       1.0000    0.47760   0.23880   0.48410   Biso      1.000     H          0.132435  
         H22       1.0000    0.76120   0.23880   0.01590   Biso      1.000     H          0.132426  
         H23       1.0000    0.23490   0.24360   0.25000   Biso      1.000     H          0.203215  
         H24       1.0000    0.47760   0.23880   0.01590   Biso      1.000     H          0.132422  
         H25       1.0000    0.75640   0.99130   0.25000   Biso      1.000     H          0.20323   
         H26       1.0000    0.00870   0.76510   0.25000   Biso      1.000     H          0.203211  
         H27       1.0000    0.76510   0.75640   0.75000   Biso      1.000     H          0.203209  
         H28       1.0000    0.24360   0.00870   0.75000   Biso      1.000     H          0.203209  
         H29       1.0000    0.24360   0.23490   0.75000   Biso      1.000     H          0.203208  
         H30       1.0000    0.71770   0.65310   0.33810   Biso      1.000     H          0.116224  
         H31       1.0000    0.23490   0.99130   0.25000   Biso      1.000     H          0.203209  
         H32       1.0000    0.34690   0.28230   0.33810   Biso      1.000     H          0.11623   
         H33       1.0000    0.83610   0.83450   0.70820   Biso      1.000     H          0.203297  
         H34       1.0000    0.65310   0.71770   0.83810   Biso      1.000     H          0.116222  
         H35       1.0000    0.06460   0.71770   0.66190   Biso      1.000     H          0.116232  
         H36       1.0000    0.16550   0.00160   0.70820   Biso      1.000     H          0.203315  
         H37       1.0000    0.28230   0.34690   0.66190   Biso      1.000     H          0.116222  
         H38       1.0000    0.28230   0.34690   0.83810   Biso      1.000     H          0.116217  
         H39       1.0000    0.99840   0.16390   0.70820   Biso      1.000     H          0.203295  
         H40       1.0000    0.16550   0.00160   0.79180   Biso      1.000     H          0.203321  
         H41       1.0000    0.06460   0.71770   0.83810   Biso      1.000     H          0.11623   
         H42       1.0000    0.34690   0.06460   0.33810   Biso      1.000     H          0.116229  
         H43       1.0000    0.06460   0.34690   0.83810   Biso      1.000     H          0.116221  
         H44       1.0000    0.65310   0.93540   0.83810   Biso      1.000     H          0.116216  
         H45       1.0000    0.16550   0.16390   0.79180   Biso      1.000     H          0.203312  
         H46       1.0000    0.16390   0.99840   0.29180   Biso      1.000     H          0.203298  
         H47       1.0000    0.28230   0.93540   0.83810   Biso      1.000     H          0.116223  
         H48       1.0000    0.99840   0.83450   0.79180   Biso      1.000     H          0.203309  
         H49       1.0000    0.00160   0.16550   0.29180   Biso      1.000     H          0.203316  
         H50       1.0000    0.71770   0.06460   0.33810   Biso      1.000     H          0.116222  
         H51       1.0000    0.83450   0.83610   0.29180   Biso      1.000     H          0.203293  
         H52       1.0000    0.93540   0.65310   0.33810   Biso      1.000     H          0.116221  
         H53       1.0000    0.83610   0.83450   0.79180   Biso      1.000     H          0.203305  
         H54       1.0000    0.16390   0.16550   0.29180   Biso      1.000     H          0.203314  
         H55       1.0000    0.99840   0.16390   0.79180   Biso      1.000     H          0.203302  
         H56       1.0000    0.83610   0.00160   0.79180   Biso      1.000     H          0.203323  
         H57       1.0000    0.93540   0.28230   0.16190   Biso      1.000     H          0.116223  
         H58       1.0000    0.83450   0.99840   0.20820   Biso      1.000     H          0.203324  
         H59       1.0000    0.65310   0.93540   0.66190   Biso      1.000     H          0.116225  
         H60       1.0000    0.83450   0.83610   0.20820   Biso      1.000     H          0.203299  
         H61       1.0000    0.16390   0.16550   0.20820   Biso      1.000     H          0.203324  
         H62       1.0000    0.93540   0.65310   0.16190   Biso      1.000     H          0.116217  
         H63       1.0000    0.34690   0.06460   0.16190   Biso      1.000     H          0.116219  
         H64       1.0000    0.71770   0.06460   0.16190   Biso      1.000     H          0.116219  
         H65       1.0000    0.71770   0.65310   0.16190   Biso      1.000     H          0.116219  
         H66       1.0000    0.00160   0.83610   0.29180   Biso      1.000     H          0.203309  
         H67       1.0000    0.00160   0.83610   0.20820   Biso      1.000     H          0.203315  
         H68       1.0000    0.34690   0.28230   0.16190   Biso      1.000     H          0.116219  
         H69       1.0000    0.16390   0.99840   0.20820   Biso      1.000     H          0.203306  
         H70       1.0000    0.83450   0.99840   0.29180   Biso      1.000     H          0.203316  
         H71       1.0000    0.93540   0.28230   0.33810   Biso      1.000     H          0.116226  
         H72       1.0000    0.00160   0.16550   0.20820   Biso      1.000     H          0.203324  
         O1        1.0000    0.56051   0.58969   0.91012   Biso      1.000     O          -0.536283           
         O2        1.0000    0.51931   0.62894   0.00534   Biso      1.000     O          -0.531241           
         O3        1.0000    0.97082   0.41031   0.08988   Biso      1.000     O          -0.536265           
         O4        1.0000    0.37106   0.89037   0.00534   Biso      1.000     O          -0.531225           
         O5        1.0000    0.48069   0.10963   0.99466   Biso      1.000     O          -0.531226           
         O6        1.0000    0.51931   0.89037   0.49466   Biso      1.000     O          -0.531174           
         O7        1.0000    0.89037   0.37106   0.99466   Biso      1.000     O          -0.531226           
         O8        1.0000    0.58969   0.56051   0.08988   Biso      1.000     O          -0.536368           
         O9        1.0000    0.02918   0.43949   0.91012   Biso      1.000     O          -0.536356           
         O10       1.0000    0.62894   0.51931   0.99466   Biso      1.000     O          -0.531219           
         O11       1.0000    0.37106   0.48069   0.49466   Biso      1.000     O          -0.531205           
         O12       1.0000    0.41031   0.43949   0.58988   Biso      1.000     O          -0.536344           
         O13       1.0000    0.10963   0.62894   0.49466   Biso      1.000     O          -0.531207           
         O14       1.0000    0.56051   0.97082   0.58988   Biso      1.000     O          -0.536313           
         O15       1.0000    0.02918   0.58969   0.58988   Biso      1.000     O          -0.536344           
         O16       1.0000    0.41031   0.97082   0.91012   Biso      1.000     O          -0.536273           
         O17       1.0000    0.10963   0.48069   0.00534   Biso      1.000     O          -0.531203           
         O18       1.0000    0.02918   0.43949   0.58988   Biso      1.000     O          -0.536348           
         O19       1.0000    0.89037   0.51931   0.50534   Biso      1.000     O          -0.531207           
         O20       1.0000    0.97082   0.41031   0.41012   Biso      1.000     O          -0.536345           
         O21       1.0000    0.89037   0.37106   0.50534   Biso      1.000     O          -0.531207           
         O22       1.0000    0.58969   0.56051   0.41012   Biso      1.000     O          -0.536343           
         O23       1.0000    0.62894   0.51931   0.50534   Biso      1.000     O          -0.531205           
         O24       1.0000    0.97082   0.56051   0.08988   Biso      1.000     O          -0.536354           
         O25       1.0000    0.89037   0.51931   0.99466   Biso      1.000     O          -0.531204           
         O26       1.0000    0.48069   0.10963   0.50534   Biso      1.000     O          -0.531171           
         O27       1.0000    0.58969   0.02918   0.08988   Biso      1.000     O          -0.536271           
         O28       1.0000    0.56051   0.58969   0.58988   Biso      1.000     O          -0.536337           
         O29       1.0000    0.62894   0.10963   0.99466   Biso      1.000     O          -0.531226           
         O30       1.0000    0.43949   0.41031   0.08988   Biso      1.000     O          -0.536284           
         O31       1.0000    0.48069   0.37106   0.99466   Biso      1.000     O          -0.531242           
         O32       1.0000    0.37106   0.89037   0.49466   Biso      1.000     O          -0.531176           
         O33       1.0000    0.41031   0.97082   0.58988   Biso      1.000     O          -0.536317           
         O34       1.0000    0.51931   0.62894   0.49466   Biso      1.000     O          -0.531203           
         O35       1.0000    0.43949   0.02918   0.41012   Biso      1.000     O          -0.536316           
         O36       1.0000    0.43949   0.02918   0.08988   Biso      1.000     O          -0.536274           
         O37       1.0000    0.02918   0.58969   0.91012   Biso      1.000     O          -0.536266           
         O38       1.0000    0.58969   0.02918   0.41012   Biso      1.000     O          -0.536317           
         O39       1.0000    0.62894   0.10963   0.50534   Biso      1.000     O          -0.53117  
         O40       1.0000    0.43949   0.41031   0.41012   Biso      1.000     O          -0.536339           
         O41       1.0000    0.48069   0.37106   0.50534   Biso      1.000     O          -0.531204           
         O42       1.0000    0.37106   0.48069   0.00534   Biso      1.000     O          -0.53122  
         O43       1.0000    0.41031   0.43949   0.91012   Biso      1.000     O          -0.536369           
         O44       1.0000    0.10963   0.62894   0.00534   Biso      1.000     O          -0.531225           
         O45       1.0000    0.97082   0.56051   0.41012   Biso      1.000     O          -0.536349           
         O46       1.0000    0.51931   0.89037   0.00534   Biso      1.000     O          -0.531225           
         O47       1.0000    0.56051   0.97082   0.91012   Biso      1.000     O          -0.536276           
         O48       1.0000    0.10963   0.48069   0.49466   Biso      1.000     O          -0.531208           
         Si1       1.0000    0.86718   0.13282   0.25000   Biso      1.000     Si          0.857713  
         Si2       1.0000    0.13283   0.86718   0.75000   Biso      1.000     Si          0.857696  
         Si3       1.0000    0.73435   0.86718   0.75000   Biso      1.000     Si          0.857694  
         Si4       1.0000    0.86718   0.73435   0.25000   Biso      1.000     Si          0.857717  
         Si5       1.0000    0.13283   0.26565   0.75000   Biso      1.000     Si          0.857719  
         Si6       1.0000    0.26565   0.13283   0.25000   Biso      1.000     Si          0.857695 