
##########################################################################
#               Crystallographic Information Format file
#               Produced by PyCifRW module
#
#  This is a CIF file.  CIF has been adopted by the International
#  Union of Crystallography as the standard for data archiving and
#  transmission.
#
#  For information on this file format, follow the CIF links at
#  http://www.iucr.org
##########################################################################

data_image0

_cell_length_a                          19.377
_cell_length_b                          16.277
_cell_length_c                          10.72
_cell_angle_alpha                       90
_cell_angle_beta                        101.384
_cell_angle_gamma                       90
_symmetry_space_group_name_H-M          'P 1'
_symmetry_int_tables_number             1
loop_
  _symmetry_equiv_pos_as_xyz
         'x, y, z' 
loop_
  _atom_site_label
  _atom_site_occupancy
  _atom_site_fract_x
  _atom_site_fract_y
  _atom_site_fract_z
  _atom_site_thermal_displace_type
  _atom_site_B_iso_or_equiv
  _atom_site_type_symbol
  _atom_site_charge
         C1        1.0000    0.11660   0.08330   0.55170   Biso      1.000     C          0.611282  
         C2        1.0000    0.26780   0.56930   0.06850   Biso      1.000     C          -0.150229           
         C3        1.0000    0.20042   0.53870   0.06580   Biso      1.000     C          -0.048359           
         C4        1.0000    0.65470   0.01880   0.79250   Biso      1.000     C          -0.136122           
         C5        1.0000    0.71850   0.97770   0.80530   Biso      1.000     C          0.117473  
         C6        1.0000    0.90310   0.02040   0.75550   Biso      1.000     C          0.06089   
         C7        1.0000    0.84230   0.97920   0.76420   Biso      1.000     C          -0.153531           
         C8        1.0000    0.78480   0.02170   0.79270   Biso      1.000     C          0.122831  
         C9        1.0000    0.79230   0.10610   0.80890   Biso      1.000     C          -0.140859           
         C10       1.0000    0.85410   0.14500   0.80110   Biso      1.000     C          0.050279  
         C11       1.0000    0.97850   0.14150   0.77830   Biso      1.000     C          -0.226503           
         C12       1.0000    0.97638   0.22280   0.71450   Biso      1.000     C          0.310921  
         C13       1.0000    0.48710   0.28020   0.70340   Biso      1.000     C          0.313854  
         C14       1.0000    0.51290   0.71980   0.29660   Biso      1.000     C          0.313856  
         C15       1.0000    0.53600   0.64410   0.37310   Biso      1.000     C          -0.216421           
         C16       1.0000    0.32242   0.51790   0.04920   Biso      1.000     C          -0.022461           
         C17       1.0000    0.71850   0.60610   0.32710   Biso      1.000     C          -0.148564           
         C18       1.0000    0.59580   0.52240   0.30990   Biso      1.000     C          0.070286  
         C19       1.0000    0.36405   0.12170   0.49330   Biso      1.000     C          0.572271  
         C20       1.0000    0.39460   0.94420   0.56590   Biso      1.000     C          0.610276  
         C21       1.0000    0.14310   0.90170   0.57910   Biso      1.000     C          0.586595  
         C22       1.0000    0.18726   0.04490   0.54520   Biso      1.000     C          -0.030896           
         C23       1.0000    0.24103   0.09620   0.52380   Biso      1.000     C          -0.161908           
         C24       1.0000    0.30835   0.06520   0.52310   Biso      1.000     C          -0.056793           
         C25       1.0000    0.32242   0.98210   0.54920   Biso      1.000     C          -0.02246  
         C26       1.0000    0.26780   0.93070   0.56850   Biso      1.000     C          -0.15023  
         C27       1.0000    0.20042   0.96130   0.56580   Biso      1.000     C          -0.048362           
         C28       1.0000    0.65470   0.48120   0.29250   Biso      1.000     C          -0.136115           
         C29       1.0000    0.71850   0.52230   0.30530   Biso      1.000     C          0.117473  
         C30       1.0000    0.90310   0.47960   0.25550   Biso      1.000     C          0.06089   
         C31       1.0000    0.84230   0.52080   0.26420   Biso      1.000     C          -0.153531           
         C32       1.0000    0.65860   0.64480   0.34690   Biso      1.000     C          0.060084  
         C33       1.0000    0.30835   0.43480   0.02310   Biso      1.000     C          -0.056793           
         C34       1.0000    0.24103   0.40380   0.02380   Biso      1.000     C          -0.161908           
         C35       1.0000    0.18726   0.45510   0.04520   Biso      1.000     C          -0.030897           
         C36       1.0000    0.46400   0.35590   0.62690   Biso      1.000     C          -0.216421           
         C37       1.0000    0.28150   0.39390   0.67290   Biso      1.000     C          -0.148564           
         C38       1.0000    0.34140   0.35520   0.65310   Biso      1.000     C          0.060084  
         C39       1.0000    0.40420   0.47760   0.69010   Biso      1.000     C          0.070286  
         C40       1.0000    0.63595   0.87830   0.50670   Biso      1.000     C          0.572271  
         C41       1.0000    0.60540   0.05580   0.43410   Biso      1.000     C          0.610275  
         C42       1.0000    0.85690   0.09830   0.42090   Biso      1.000     C          0.586595  
         C43       1.0000    0.81274   0.95510   0.45480   Biso      1.000     C          -0.030895           
         C44       1.0000    0.75897   0.90380   0.47620   Biso      1.000     C          -0.161908           
         C45       1.0000    0.69165   0.93480   0.47690   Biso      1.000     C          -0.056794           
         C46       1.0000    0.67758   0.01790   0.45080   Biso      1.000     C          -0.02246  
         C47       1.0000    0.73220   0.06930   0.43150   Biso      1.000     C          -0.15023  
         C48       1.0000    0.79958   0.03870   0.43420   Biso      1.000     C          -0.048362           
         C49       1.0000    0.34530   0.51880   0.70750   Biso      1.000     C          -0.136115           
         C50       1.0000    0.28150   0.47770   0.69470   Biso      1.000     C          0.117473  
         C51       1.0000    0.09690   0.52040   0.74450   Biso      1.000     C          0.06089   
         C52       1.0000    0.15770   0.47920   0.73580   Biso      1.000     C          -0.153531           
         C53       1.0000    0.14310   0.59830   0.07910   Biso      1.000     C          0.586594  
         C54       1.0000    0.39460   0.55580   0.06590   Biso      1.000     C          0.610275  
         C55       1.0000    0.36405   0.37830   0.99330   Biso      1.000     C          0.572271  
         C56       1.0000    0.59580   0.97760   0.80990   Biso      1.000     C          0.070293  
         C57       1.0000    0.65860   0.85520   0.84690   Biso      1.000     C          0.060078  
         C58       1.0000    0.71850   0.89390   0.82710   Biso      1.000     C          -0.148559           
         C59       1.0000    0.78480   0.47830   0.29270   Biso      1.000     C          0.122831  
         C60       1.0000    0.53600   0.85590   0.87310   Biso      1.000     C          -0.216421           
         C61       1.0000    0.11660   0.41670   0.05170   Biso      1.000     C          0.611281  
         C62       1.0000    0.02362   0.72280   0.78550   Biso      1.000     C          0.310924  
         C63       1.0000    0.02150   0.64150   0.72170   Biso      1.000     C          -0.226503           
         C64       1.0000    0.14590   0.64500   0.69890   Biso      1.000     C          0.050275  
         C65       1.0000    0.20770   0.60610   0.69110   Biso      1.000     C          -0.140858           
         C66       1.0000    0.21520   0.52170   0.70730   Biso      1.000     C          0.122832  
         C67       1.0000    0.51290   0.78020   0.79660   Biso      1.000     C          0.313855  
         C68       1.0000    0.79230   0.39390   0.30890   Biso      1.000     C          -0.140859           
         C69       1.0000    0.88340   0.91670   0.44830   Biso      1.000     C          0.611281  
         C70       1.0000    0.69165   0.56520   0.97690   Biso      1.000     C          -0.056793           
         C71       1.0000    0.88340   0.58330   0.94830   Biso      1.000     C          0.611281  
         C72       1.0000    0.09690   0.97960   0.24450   Biso      1.000     C          0.06089   
         C73       1.0000    0.48710   0.21980   0.20340   Biso      1.000     C          0.313856  
         C74       1.0000    0.60540   0.44420   0.93410   Biso      1.000     C          0.610275  
         C75       1.0000    0.28150   0.02230   0.19470   Biso      1.000     C          0.117473  
         C76       1.0000    0.46400   0.14410   0.12690   Biso      1.000     C          -0.21642  
         C77       1.0000    0.34530   0.98120   0.20750   Biso      1.000     C          -0.136121           
         C78       1.0000    0.15770   0.02080   0.23580   Biso      1.000     C          -0.153531           
         C79       1.0000    0.28150   0.10610   0.17290   Biso      1.000     C          -0.148564           
         C80       1.0000    0.79958   0.46130   0.93420   Biso      1.000     C          -0.048358           
         C81       1.0000    0.73220   0.43070   0.93150   Biso      1.000     C          -0.150231           
         C82       1.0000    0.67758   0.48210   0.95080   Biso      1.000     C          -0.022461           
         C83       1.0000    0.40420   0.02240   0.19010   Biso      1.000     C          0.070293  
         C84       1.0000    0.63595   0.62170   0.00670   Biso      1.000     C          0.572271  
         C85       1.0000    0.75897   0.59620   0.97620   Biso      1.000     C          -0.161908           
         C86       1.0000    0.81274   0.54490   0.95480   Biso      1.000     C          -0.030898           
         C87       1.0000    0.34140   0.14480   0.15310   Biso      1.000     C          0.060084  
         C88       1.0000    0.21520   0.97830   0.20730   Biso      1.000     C          0.12283   
         C89       1.0000    0.85690   0.40170   0.92090   Biso      1.000     C          0.586594  
         C90       1.0000    0.97638   0.27720   0.21450   Biso      1.000     C          0.310923  
         C91       1.0000    0.14590   0.85500   0.19890   Biso      1.000     C          0.050276  
         C92       1.0000    0.02362   0.77720   0.28550   Biso      1.000     C          0.310922  
         C93       1.0000    0.20770   0.89390   0.19110   Biso      1.000     C          -0.140856           
         C94       1.0000    0.85410   0.35500   0.30110   Biso      1.000     C          0.050278  
         C95       1.0000    0.97850   0.35850   0.27830   Biso      1.000     C          -0.226503           
         C96       1.0000    0.02150   0.85850   0.22170   Biso      1.000     C          -0.226503           
         H1        1.0000    0.44670   0.50560   0.69890   Biso      1.000     H          0.123742  
         H2        1.0000    0.55330   0.00560   0.80110   Biso      1.000     H          0.123741  
         H3        1.0000    0.34020   0.29930   0.63460   Biso      1.000     H          0.132977  
         H4        1.0000    0.72340   0.37510   0.91670   Biso      1.000     H          0.127927  
         H5        1.0000    0.23220   0.34810   0.00980   Biso      1.000     H          0.125311  
         H6        1.0000    0.27660   0.62490   0.08330   Biso      1.000     H          0.127927  
         H7        1.0000    0.45310   0.34120   0.53750   Biso      1.000     H          0.145824  
         H8        1.0000    0.76780   0.65190   0.99020   Biso      1.000     H          0.125311  
         H9        1.0000    0.65190   0.07440   0.77210   Biso      1.000     H          0.139346  
         H10       1.0000    0.50280   0.39460   0.63890   Biso      1.000     H          0.161332  
         H11       1.0000    0.94090   0.99150   0.73580   Biso      1.000     H          0.12536   
         H12       1.0000    0.83940   0.92280   0.75100   Biso      1.000     H          0.144148  
         H13       1.0000    0.24070   0.36360   0.67150   Biso      1.000     H          0.146558  
         H14       1.0000    0.65980   0.79930   0.86540   Biso      1.000     H          0.132977  
         H15       1.0000    0.34810   0.92560   0.22790   Biso      1.000     H          0.139345  
         H16       1.0000    0.34810   0.57440   0.72790   Biso      1.000     H          0.139345  
         H17       1.0000    0.05910   0.49150   0.76420   Biso      1.000     H          0.12536   
         H18       1.0000    0.24540   0.86320   0.17450   Biso      1.000     H          0.152492  
         H19       1.0000    0.16060   0.42280   0.74900   Biso      1.000     H          0.144148  
         H20       1.0000    0.16060   0.07720   0.24900   Biso      1.000     H          0.144148  
         H21       1.0000    0.72340   0.12490   0.41670   Biso      1.000     H          0.127927  
         H22       1.0000    0.24540   0.63680   0.67450   Biso      1.000     H          0.152492  
         H23       1.0000    0.14180   0.79860   0.18620   Biso      1.000     H          0.129873  
         H24       1.0000    0.05910   0.00850   0.26420   Biso      1.000     H          0.125359  
         H25       1.0000    0.99800   0.64790   0.63360   Biso      1.000     H          0.140734  
         H26       1.0000    0.99310   0.60450   0.76170   Biso      1.000     H          0.164034  
         H27       1.0000    0.76780   0.84810   0.49020   Biso      1.000     H          0.125311  
         H28       1.0000    0.99800   0.85210   0.13360   Biso      1.000     H          0.140736  
         H29       1.0000    0.49720   0.89460   0.86110   Biso      1.000     H          0.161332  
         H30       1.0000    0.54690   0.84120   0.96250   Biso      1.000     H          0.145825  
         H31       1.0000    0.99310   0.89550   0.26170   Biso      1.000     H          0.164034  
         H32       1.0000    0.75930   0.86360   0.82850   Biso      1.000     H          0.146558  
         H33       1.0000    0.14180   0.70140   0.68620   Biso      1.000     H          0.129874  
         H34       1.0000    0.85820   0.29860   0.31380   Biso      1.000     H          0.129873  
         H35       1.0000    0.54690   0.65880   0.46250   Biso      1.000     H          0.145825  
         H36       1.0000    0.75930   0.63640   0.32850   Biso      1.000     H          0.146558  
         H37       1.0000    0.55330   0.49440   0.30110   Biso      1.000     H          0.123742  
         H38       1.0000    0.24070   0.13640   0.17150   Biso      1.000     H          0.146558  
         H39       1.0000    0.49720   0.60540   0.36110   Biso      1.000     H          0.161333  
         H40       1.0000    0.00690   0.39550   0.23830   Biso      1.000     H          0.164034  
         H41       1.0000    0.44670   0.99440   0.19890   Biso      1.000     H          0.123741  
         H42       1.0000    0.65190   0.42560   0.27210   Biso      1.000     H          0.139346  
         H43       1.0000    0.45310   0.15880   0.03750   Biso      1.000     H          0.145825  
         H44       1.0000    0.94090   0.50850   0.23580   Biso      1.000     H          0.12536   
         H45       1.0000    0.00200   0.35210   0.36640   Biso      1.000     H          0.140736  
         H46       1.0000    0.50280   0.10540   0.13890   Biso      1.000     H          0.161332  
         H47       1.0000    0.34020   0.20070   0.13460   Biso      1.000     H          0.132977  
         H48       1.0000    0.83940   0.57720   0.25100   Biso      1.000     H          0.144148  
         H49       1.0000    0.23220   0.15190   0.50980   Biso      1.000     H          0.125311  
         H50       1.0000    0.65980   0.70070   0.36540   Biso      1.000     H          0.132977  
         H51       1.0000    0.00200   0.14790   0.86640   Biso      1.000     H          0.140736  
         H52       1.0000    0.27660   0.87510   0.58330   Biso      1.000     H          0.127927  
         H53       1.0000    0.75460   0.13680   0.82550   Biso      1.000     H          0.152492  
         H54       1.0000    0.75460   0.36320   0.32550   Biso      1.000     H          0.152492  
         H55       1.0000    0.85820   0.20140   0.81380   Biso      1.000     H          0.129873  
         H56       1.0000    0.00690   0.10450   0.73830   Biso      1.000     H          0.164034  
         N1        1.0000    0.02418   0.79480   0.72540   Biso      1.000     N          -0.251074           
         N2        1.0000    0.59844   0.60276   0.33970   Biso      1.000     N          0.182087  
         N3        1.0000    0.50443   0.21078   0.65250   Biso      1.000     N          -0.25406  
         N4        1.0000    0.49797   0.22724   0.32940   Biso      1.000     N          -0.273216           
         N5        1.0000    0.50443   0.28922   0.15250   Biso      1.000     N          -0.254054           
         N6        1.0000    0.49557   0.78922   0.34750   Biso      1.000     N          -0.254059           
         N7        1.0000    0.02197   0.73610   0.90710   Biso      1.000     N          -0.256276           
         N8        1.0000    0.52640   0.34130   0.25100   Biso      1.000     N          -0.045775           
         N9        1.0000    0.97803   0.26390   0.09290   Biso      1.000     N          -0.256276           
         N10       1.0000    0.97582   0.29480   0.77460   Biso      1.000     N          -0.25107  
         N11       1.0000    0.52224   0.19580   0.85640   Biso      1.000     N          -0.09699  
         N12       1.0000    0.90870   0.39763   0.27530   Biso      1.000     N          0.179425  
         N13       1.0000    0.02290   0.81820   0.92320   Biso      1.000     N          -0.09353  
         N14       1.0000    0.49797   0.27276   0.82940   Biso      1.000     N          -0.27319  
         N15       1.0000    0.52224   0.30420   0.35640   Biso      1.000     N          -0.096928           
         N16       1.0000    0.02400   0.85370   0.81490   Biso      1.000     N          -0.059088           
         N17       1.0000    0.52640   0.15870   0.75100   Biso      1.000     N          -0.04573  
         N18       1.0000    0.02400   0.64630   0.31490   Biso      1.000     N          -0.059145           
         N19       1.0000    0.02418   0.70520   0.22540   Biso      1.000     N          -0.251053           
         N20       1.0000    0.09130   0.60237   0.72470   Biso      1.000     N          0.179425  
         N21       1.0000    0.50203   0.77276   0.67060   Biso      1.000     N          -0.273211           
         N22       1.0000    0.97600   0.35370   0.68510   Biso      1.000     N          -0.059127           
         N23       1.0000    0.47776   0.69580   0.64360   Biso      1.000     N          -0.096968           
         N24       1.0000    0.47360   0.65870   0.74900   Biso      1.000     N          -0.045747           
         N25       1.0000    0.97582   0.20520   0.27460   Biso      1.000     N          -0.251073           
         N26       1.0000    0.49557   0.71078   0.84750   Biso      1.000     N          -0.254044           
         N27       1.0000    0.50203   0.72724   0.17060   Biso      1.000     N          -0.273211           
         N28       1.0000    0.97710   0.31820   0.57680   Biso      1.000     N          -0.093512           
         N29       1.0000    0.90870   0.10237   0.77530   Biso      1.000     N          0.179425  
         N30       1.0000    0.97710   0.18180   0.07680   Biso      1.000     N          -0.09353  
         N31       1.0000    0.09130   0.89763   0.22470   Biso      1.000     N          0.179425  
         N32       1.0000    0.02197   0.76390   0.40710   Biso      1.000     N          -0.256281           
         N33       1.0000    0.97803   0.23610   0.59290   Biso      1.000     N          -0.256255           
         N34       1.0000    0.97600   0.14630   0.18510   Biso      1.000     N          -0.059088           
         N35       1.0000    0.47776   0.80420   0.14360   Biso      1.000     N          -0.09697  
         N36       1.0000    0.59844   0.89724   0.83970   Biso      1.000     N          0.182087  
         N37       1.0000    0.47360   0.84130   0.24900   Biso      1.000     N          -0.045732           
         N38       1.0000    0.02290   0.68180   0.42320   Biso      1.000     N          -0.093486           
         N39       1.0000    0.40156   0.39724   0.66030   Biso      1.000     N          0.182087  
         N40       1.0000    0.40156   0.10276   0.16030   Biso      1.000     N          0.182086  
         O1        1.0000    0.64463   0.80331   0.50880   Biso      1.000     O          -0.596207           
         O2        1.0000    0.91905   0.88988   0.55120   Biso      1.000     O          -0.572545           
         O3        1.0000    0.56201   0.04284   0.33560   Biso      1.000     O          -0.57716  
         O4        1.0000    0.58185   0.91430   0.53280   Biso      1.000     O          -0.549255           
         O5        1.0000    0.08095   0.11012   0.44880   Biso      1.000     O          -0.572545           
         O6        1.0000    0.89974   0.90920   0.34340   Biso      1.000     O          -0.578172           
         O7        1.0000    0.84199   0.16570   0.37320   Biso      1.000     O          -0.589178           
         O8        1.0000    0.91944   0.07541   0.46530   Biso      1.000     O          -0.550326           
         O9        1.0000    0.59506   0.10523   0.52130   Biso      1.000     O          -0.56861  
         O10       1.0000    0.84199   0.33430   0.87320   Biso      1.000     O          -0.589177           
         O11       1.0000    0.15801   0.83430   0.62680   Biso      1.000     O          -0.589177           
         O12       1.0000    0.15801   0.66570   0.12680   Biso      1.000     O          -0.589177           
         O13       1.0000    0.58185   0.58570   0.03280   Biso      1.000     O          -0.549255           
         O14       1.0000    0.35537   0.30331   0.99120   Biso      1.000     O          -0.596207           
         O15       1.0000    0.41815   0.41430   0.96720   Biso      1.000     O          -0.549254           
         O16       1.0000    0.64463   0.69669   0.00880   Biso      1.000     O          -0.596207           
         O17       1.0000    0.56201   0.45716   0.83560   Biso      1.000     O          -0.577161           
         O18       1.0000    0.43799   0.54284   0.16440   Biso      1.000     O          -0.57716  
         O19       1.0000    0.10026   0.09080   0.65660   Biso      1.000     O          -0.578172           
         O20       1.0000    0.40494   0.60523   0.97870   Biso      1.000     O          -0.568609           
         O21       1.0000    0.89974   0.59080   0.84340   Biso      1.000     O          -0.578172           
         O22       1.0000    0.10026   0.40920   0.15660   Biso      1.000     O          -0.578172           
         O23       1.0000    0.08095   0.38988   0.94880   Biso      1.000     O          -0.572545           
         O24       1.0000    0.91905   0.61012   0.05120   Biso      1.000     O          -0.572545           
         O25       1.0000    0.91944   0.42459   0.96530   Biso      1.000     O          -0.550326           
         O26       1.0000    0.08056   0.92459   0.53470   Biso      1.000     O          -0.550326           
         O27       1.0000    0.40494   0.89477   0.47870   Biso      1.000     O          -0.56861  
         O28       1.0000    0.43799   0.95716   0.66440   Biso      1.000     O          -0.577161           
         O29       1.0000    0.41815   0.08570   0.46720   Biso      1.000     O          -0.549255           
         O30       1.0000    0.59506   0.39477   0.02130   Biso      1.000     O          -0.568608           
         O31       1.0000    0.35537   0.19669   0.49120   Biso      1.000     O          -0.596207           
         O32       1.0000    0.08056   0.57541   0.03470   Biso      1.000     O          -0.550326           
         Zn1       1.0000    0.49905   0.65312   0.01872   Biso      1.000     Zn          0.800314  
         Zn2       1.0000    0.50095   0.15312   0.48128   Biso      1.000     Zn          0.800314  
         Zn3       1.0000    0.98937   0.34144   0.95206   Biso      1.000     Zn          0.795506  
         Zn4       1.0000    0.01063   0.84144   0.54794   Biso      1.000     Zn          0.795505  
         Zn5       1.0000    0.49905   0.84688   0.51872   Biso      1.000     Zn          0.800314  
         Zn6       1.0000    0.98937   0.15856   0.45206   Biso      1.000     Zn          0.795503  
         Zn7       1.0000    0.50095   0.34688   0.98128   Biso      1.000     Zn          0.800313  
         Zn8       1.0000    0.01063   0.65856   0.04794   Biso      1.000     Zn          0.795504 