
##########################################################################
#               Crystallographic Information Format file
#               Produced by PyCifRW module
#
#  This is a CIF file.  CIF has been adopted by the International
#  Union of Crystallography as the standard for data archiving and
#  transmission.
#
#  For information on this file format, follow the CIF links at
#  http://www.iucr.org
##########################################################################

data_image0

_cell_length_a                          11.8105
_cell_length_b                          18.7775
_cell_length_c                          18.7775
_cell_angle_alpha                       90
_cell_angle_beta                        90
_cell_angle_gamma                       90
_symmetry_space_group_name_H-M          'P 1'
_symmetry_int_tables_number             1
loop_
  _symmetry_equiv_pos_as_xyz
         'x, y, z' 
loop_
  _atom_site_label
  _atom_site_occupancy
  _atom_site_fract_x
  _atom_site_fract_y
  _atom_site_fract_z
  _atom_site_thermal_displace_type
  _atom_site_B_iso_or_equiv
  _atom_site_type_symbol
  _atom_site_charge
         C1        1.0000    0.46390   0.23520   0.53840   Biso      1.000     C          -0.137755           
         C2        1.0000    0.50040   0.23960   0.46760   Biso      1.000     C          -0.047551           
         C3        1.0000    0.48860   0.76420   0.33070   Biso      1.000     C          0.656595  
         C4        1.0000    0.73990   0.72670   0.36310   Biso      1.000     C          0.647971  
         C5        1.0000    0.67040   0.74070   0.61900   Biso      1.000     C          0.636889  
         C6        1.0000    0.41030   0.76900   0.58910   Biso      1.000     C          0.590728  
         C7        1.0000    0.46390   0.76480   0.46160   Biso      1.000     C          -0.137755           
         C8        1.0000    0.53810   0.75640   0.40440   Biso      1.000     C          -0.012108           
         C9        1.0000    0.65210   0.74180   0.41900   Biso      1.000     C          -0.048796           
         C10       1.0000    0.68840   0.73880   0.48960   Biso      1.000     C          -0.136101           
         C11       1.0000    0.61520   0.74700   0.54620   Biso      1.000     C          -0.054287           
         C12       1.0000    0.50040   0.76040   0.53240   Biso      1.000     C          -0.047552           
         C13       1.0000    0.61520   0.25300   0.45380   Biso      1.000     C          -0.054289           
         C14       1.0000    0.98860   0.16930   0.73580   Biso      1.000     C          0.656595  
         C15       1.0000    0.17040   0.88100   0.75930   Biso      1.000     C          0.636889  
         C16       1.0000    0.91030   0.91090   0.73100   Biso      1.000     C          0.590728  
         C17       1.0000    0.03810   0.09560   0.74360   Biso      1.000     C          -0.012108           
         C18       1.0000    0.15210   0.08100   0.75820   Biso      1.000     C          -0.048796           
         C19       1.0000    0.18840   0.01040   0.76120   Biso      1.000     C          -0.136101           
         C20       1.0000    0.11520   0.95380   0.75300   Biso      1.000     C          -0.054287           
         C21       1.0000    0.00040   0.96760   0.73960   Biso      1.000     C          -0.047551           
         C22       1.0000    0.98860   0.83070   0.26420   Biso      1.000     C          0.656595  
         C23       1.0000    0.23990   0.86310   0.22670   Biso      1.000     C          0.64797   
         C24       1.0000    0.17040   0.11900   0.24070   Biso      1.000     C          0.636889  
         C25       1.0000    0.91030   0.08910   0.26900   Biso      1.000     C          0.590728  
         C26       1.0000    0.23990   0.13690   0.77330   Biso      1.000     C          0.64797   
         C27       1.0000    0.96390   0.96160   0.26480   Biso      1.000     C          -0.137755           
         C28       1.0000    0.68840   0.26120   0.51040   Biso      1.000     C          -0.136099           
         C29       1.0000    0.53810   0.24360   0.59560   Biso      1.000     C          -0.012108           
         C30       1.0000    0.98860   0.66930   0.76420   Biso      1.000     C          0.656595  
         C31       1.0000    0.23990   0.63690   0.72670   Biso      1.000     C          0.64797   
         C32       1.0000    0.17040   0.38100   0.74070   Biso      1.000     C          0.636889  
         C33       1.0000    0.91030   0.41090   0.76900   Biso      1.000     C          0.590728  
         C34       1.0000    0.96390   0.53840   0.76480   Biso      1.000     C          -0.137755           
         C35       1.0000    0.03810   0.59560   0.75640   Biso      1.000     C          -0.012108           
         C36       1.0000    0.15210   0.58100   0.74180   Biso      1.000     C          -0.048796           
         C37       1.0000    0.18840   0.51040   0.73880   Biso      1.000     C          -0.136101           
         C38       1.0000    0.11520   0.45380   0.74700   Biso      1.000     C          -0.054287           
         C39       1.0000    0.00040   0.46760   0.76040   Biso      1.000     C          -0.047552           
         C40       1.0000    0.98860   0.33070   0.23580   Biso      1.000     C          0.656595  
         C41       1.0000    0.65210   0.25820   0.58100   Biso      1.000     C          -0.048796           
         C42       1.0000    0.23990   0.36310   0.27330   Biso      1.000     C          0.64797   
         C43       1.0000    0.91030   0.58910   0.23100   Biso      1.000     C          0.590728  
         C44       1.0000    0.96390   0.46160   0.23520   Biso      1.000     C          -0.137755           
         C45       1.0000    0.03810   0.40440   0.24360   Biso      1.000     C          -0.012108           
         C46       1.0000    0.15210   0.41900   0.25820   Biso      1.000     C          -0.048796           
         C47       1.0000    0.18840   0.48960   0.26120   Biso      1.000     C          -0.136101           
         C48       1.0000    0.11520   0.54620   0.25300   Biso      1.000     C          -0.054287           
         C49       1.0000    0.00040   0.53240   0.23960   Biso      1.000     C          -0.047552           
         C50       1.0000    0.48860   0.23580   0.66930   Biso      1.000     C          0.656595  
         C51       1.0000    0.73990   0.27330   0.63690   Biso      1.000     C          0.64797   
         C52       1.0000    0.67040   0.25930   0.38100   Biso      1.000     C          0.636889  
         C53       1.0000    0.41030   0.23100   0.41090   Biso      1.000     C          0.590728  
         C54       1.0000    0.17040   0.61900   0.25930   Biso      1.000     C          0.636889  
         C55       1.0000    0.03810   0.90440   0.25640   Biso      1.000     C          -0.012108           
         C56       1.0000    0.96390   0.03840   0.73520   Biso      1.000     C          -0.137756           
         C57       1.0000    0.18840   0.98960   0.23880   Biso      1.000     C          -0.136101           
         C58       1.0000    0.15210   0.91900   0.24180   Biso      1.000     C          -0.048796           
         C59       1.0000    0.50040   0.26040   0.96760   Biso      1.000     C          -0.047551           
         C60       1.0000    0.61520   0.24700   0.95380   Biso      1.000     C          -0.054289           
         C61       1.0000    0.68840   0.23880   0.01040   Biso      1.000     C          -0.136099           
         C62       1.0000    0.65210   0.24180   0.08100   Biso      1.000     C          -0.048796           
         C63       1.0000    0.53810   0.25640   0.09560   Biso      1.000     C          -0.012108           
         C64       1.0000    0.46390   0.26480   0.03840   Biso      1.000     C          -0.137755           
         C65       1.0000    0.41030   0.26900   0.91090   Biso      1.000     C          0.590727  
         C66       1.0000    0.67040   0.24070   0.88100   Biso      1.000     C          0.636889  
         C67       1.0000    0.48860   0.26420   0.16930   Biso      1.000     C          0.656595  
         C68       1.0000    0.50040   0.73960   0.03240   Biso      1.000     C          -0.047551           
         C69       1.0000    0.73990   0.22670   0.13690   Biso      1.000     C          0.647971  
         C70       1.0000    0.48860   0.73580   0.83070   Biso      1.000     C          0.656595  
         C71       1.0000    0.68840   0.76120   0.98960   Biso      1.000     C          -0.1361   
         C72       1.0000    0.65210   0.75820   0.91900   Biso      1.000     C          -0.048796           
         C73       1.0000    0.53810   0.74360   0.90440   Biso      1.000     C          -0.012108           
         C74       1.0000    0.46390   0.73520   0.96160   Biso      1.000     C          -0.137755           
         C75       1.0000    0.41030   0.73100   0.08910   Biso      1.000     C          0.590727  
         C76       1.0000    0.67040   0.75930   0.11900   Biso      1.000     C          0.636889  
         C77       1.0000    0.73990   0.77330   0.86310   Biso      1.000     C          0.64797   
         C78       1.0000    0.61520   0.75300   0.04620   Biso      1.000     C          -0.054288           
         C79       1.0000    0.00040   0.03240   0.26040   Biso      1.000     C          -0.047551           
         C80       1.0000    0.11520   0.04620   0.24700   Biso      1.000     C          -0.054288           
         H1        1.0000    0.26470   0.00110   0.76910   Biso      1.000     H          0.145117  
         H2        1.0000    0.88780   0.95250   0.27350   Biso      1.000     H          0.152416  
         H3        1.0000    0.26470   0.99890   0.23090   Biso      1.000     H          0.145117  
         H4        1.0000    0.76470   0.23090   0.00110   Biso      1.000     H          0.145117  
         H5        1.0000    0.76470   0.76910   0.99890   Biso      1.000     H          0.145117  
         H6        1.0000    0.88780   0.04750   0.72650   Biso      1.000     H          0.152416  
         H7        1.0000    0.38780   0.72650   0.95250   Biso      1.000     H          0.152416  
         H8        1.0000    0.76470   0.73090   0.49890   Biso      1.000     H          0.145117  
         H9        1.0000    0.38780   0.27350   0.04750   Biso      1.000     H          0.152416  
         H10       1.0000    0.38780   0.77350   0.45250   Biso      1.000     H          0.152416  
         H11       1.0000    0.76470   0.26910   0.50110   Biso      1.000     H          0.145117  
         H12       1.0000    0.38780   0.22650   0.54750   Biso      1.000     H          0.152416  
         H13       1.0000    0.26470   0.49890   0.26910   Biso      1.000     H          0.145117  
         H14       1.0000    0.88780   0.45250   0.22650   Biso      1.000     H          0.152416  
         H15       1.0000    0.26470   0.50110   0.73090   Biso      1.000     H          0.145117  
         H16       1.0000    0.88780   0.54750   0.77350   Biso      1.000     H          0.152416  
         O1        1.0000    0.43910   0.24420   0.34620   Biso      1.000     O          -0.638322           
         O2        1.0000    0.51540   0.81610   0.29450   Biso      1.000     O          -0.573694           
         O3        1.0000    0.41590   0.71760   0.31360   Biso      1.000     O          -0.563601           
         O4        1.0000    0.70940   0.72650   0.29970   Biso      1.000     O          -0.521693           
         O5        1.0000    0.83750   0.71280   0.38400   Biso      1.000     O          -0.609652           
         O6        1.0000    0.74770   0.78640   0.63020   Biso      1.000     O          -0.484294           
         O7        1.0000    0.65030   0.69150   0.66060   Biso      1.000     O          -0.558408           
         O8        1.0000    0.31600   0.78520   0.57250   Biso      1.000     O          -0.491751           
         O9        1.0000    0.91590   0.18640   0.78240   Biso      1.000     O          -0.5636   
         O10       1.0000    0.01540   0.20550   0.68390   Biso      1.000     O          -0.573694           
         O11       1.0000    0.31600   0.21480   0.42750   Biso      1.000     O          -0.491751           
         O12       1.0000    0.20940   0.20030   0.77350   Biso      1.000     O          -0.521693           
         O13       1.0000    0.33750   0.11600   0.78720   Biso      1.000     O          -0.609651           
         O14       1.0000    0.24770   0.86980   0.71360   Biso      1.000     O          -0.484294           
         O15       1.0000    0.15030   0.83940   0.80850   Biso      1.000     O          -0.558408           
         O16       1.0000    0.81600   0.92750   0.71480   Biso      1.000     O          -0.491751           
         O17       1.0000    0.43910   0.75580   0.65380   Biso      1.000     O          -0.638322           
         O18       1.0000    0.65030   0.30850   0.33940   Biso      1.000     O          -0.558408           
         O19       1.0000    0.20940   0.70030   0.72650   Biso      1.000     O          -0.521693           
         O20       1.0000    0.83750   0.28720   0.61600   Biso      1.000     O          -0.609652           
         O21       1.0000    0.93910   0.84620   0.74420   Biso      1.000     O          -0.638322           
         O22       1.0000    0.51540   0.18390   0.70550   Biso      1.000     O          -0.573694           
         O23       1.0000    0.93910   0.65380   0.24420   Biso      1.000     O          -0.638321           
         O24       1.0000    0.81600   0.57250   0.21480   Biso      1.000     O          -0.491751           
         O25       1.0000    0.15030   0.66060   0.30850   Biso      1.000     O          -0.558408           
         O26       1.0000    0.24770   0.63020   0.21360   Biso      1.000     O          -0.484294           
         O27       1.0000    0.33750   0.38400   0.28720   Biso      1.000     O          -0.609651           
         O28       1.0000    0.20940   0.29970   0.27350   Biso      1.000     O          -0.521693           
         O29       1.0000    0.91590   0.31360   0.28240   Biso      1.000     O          -0.563601           
         O30       1.0000    0.01540   0.29450   0.18390   Biso      1.000     O          -0.573694           
         O31       1.0000    0.93910   0.34620   0.75580   Biso      1.000     O          -0.638321           
         O32       1.0000    0.81600   0.42750   0.78520   Biso      1.000     O          -0.491751           
         O33       1.0000    0.15030   0.33940   0.69150   Biso      1.000     O          -0.558408           
         O34       1.0000    0.24770   0.36980   0.78640   Biso      1.000     O          -0.484294           
         O35       1.0000    0.33750   0.61600   0.71280   Biso      1.000     O          -0.609651           
         O36       1.0000    0.41590   0.28240   0.68640   Biso      1.000     O          -0.563601           
         O37       1.0000    0.70940   0.27350   0.70030   Biso      1.000     O          -0.521693           
         O38       1.0000    0.74770   0.21360   0.36980   Biso      1.000     O          -0.484294           
         O39       1.0000    0.01540   0.79450   0.31610   Biso      1.000     O          -0.573694           
         O40       1.0000    0.01540   0.70550   0.81610   Biso      1.000     O          -0.573694           
         O41       1.0000    0.20940   0.79970   0.22650   Biso      1.000     O          -0.521693           
         O42       1.0000    0.91590   0.68640   0.71760   Biso      1.000     O          -0.5636   
         O43       1.0000    0.43910   0.25580   0.84620   Biso      1.000     O          -0.638321           
         O44       1.0000    0.31600   0.28520   0.92750   Biso      1.000     O          -0.491751           
         O45       1.0000    0.91590   0.81360   0.21760   Biso      1.000     O          -0.563601           
         O46       1.0000    0.74770   0.28640   0.86980   Biso      1.000     O          -0.484294           
         O47       1.0000    0.83750   0.21280   0.11600   Biso      1.000     O          -0.609652           
         O48       1.0000    0.70940   0.22650   0.20030   Biso      1.000     O          -0.521693           
         O49       1.0000    0.41590   0.21760   0.18640   Biso      1.000     O          -0.563601           
         O50       1.0000    0.51540   0.31610   0.20550   Biso      1.000     O          -0.573694           
         O51       1.0000    0.43910   0.74420   0.15380   Biso      1.000     O          -0.638321           
         O52       1.0000    0.31600   0.71480   0.07250   Biso      1.000     O          -0.491751           
         O53       1.0000    0.65030   0.19150   0.83940   Biso      1.000     O          -0.558408           
         O54       1.0000    0.74770   0.71360   0.13020   Biso      1.000     O          -0.484294           
         O55       1.0000    0.65030   0.80850   0.16060   Biso      1.000     O          -0.558408           
         O56       1.0000    0.33750   0.88400   0.21280   Biso      1.000     O          -0.609652           
         O57       1.0000    0.15030   0.16060   0.19150   Biso      1.000     O          -0.558408           
         O58       1.0000    0.81600   0.07250   0.28520   Biso      1.000     O          -0.491751           
         O59       1.0000    0.24770   0.13020   0.28640   Biso      1.000     O          -0.484294           
         O60       1.0000    0.51540   0.68390   0.79450   Biso      1.000     O          -0.573694           
         O61       1.0000    0.41590   0.78240   0.81360   Biso      1.000     O          -0.563601           
         O62       1.0000    0.70940   0.77350   0.79970   Biso      1.000     O          -0.521693           
         O63       1.0000    0.83750   0.78720   0.88400   Biso      1.000     O          -0.609652           
         O64       1.0000    0.93910   0.15380   0.25580   Biso      1.000     O          -0.638321           
         Zn1       1.0000    0.00004   0.81009   0.85272   Biso      1.000     Zn          1.093074  
         Zn2       1.0000    0.32154   0.27739   0.77320   Biso      1.000     Zn          0.955224  
         Zn3       1.0000    0.50004   0.85272   0.18991   Biso      1.000     Zn          1.093073  
         Zn4       1.0000    0.32154   0.72261   0.22680   Biso      1.000     Zn          0.955224  
         Zn5       1.0000    0.00004   0.18991   0.14728   Biso      1.000     Zn          1.093074  
         Zn6       1.0000    0.82154   0.22680   0.27739   Biso      1.000     Zn          0.955224  
         Zn7       1.0000    0.82154   0.77320   0.72261   Biso      1.000     Zn          0.955224  
         Zn8       1.0000    0.00004   0.68991   0.35272   Biso      1.000     Zn          1.093074  
         Zn9       1.0000    0.32154   0.77739   0.72680   Biso      1.000     Zn          0.955224  
         Zn10      1.0000    0.50004   0.35272   0.31009   Biso      1.000     Zn          1.093074  
         Zn11      1.0000    0.32154   0.22261   0.27320   Biso      1.000     Zn          0.955224  
         Zn12      1.0000    0.82154   0.72680   0.22261   Biso      1.000     Zn          0.955224  
         Zn13      1.0000    0.00004   0.31009   0.64728   Biso      1.000     Zn          1.093073  
         Zn14      1.0000    0.82154   0.27320   0.77739   Biso      1.000     Zn          0.955224  
         Zn15      1.0000    0.50004   0.64728   0.68991   Biso      1.000     Zn          1.093073  
         Zn16      1.0000    0.50004   0.14728   0.81009   Biso      1.000     Zn          1.093073 