
##########################################################################
#               Crystallographic Information Format file
#               Produced by PyCifRW module
#
#  This is a CIF file.  CIF has been adopted by the International
#  Union of Crystallography as the standard for data archiving and
#  transmission.
#
#  For information on this file format, follow the CIF links at
#  http://www.iucr.org
##########################################################################

data_image0

_cell_length_a                          11.688
_cell_length_b                          10.2438
_cell_length_c                          18.753
_cell_angle_alpha                       90
_cell_angle_beta                        127.408
_cell_angle_gamma                       90
_symmetry_space_group_name_H-M          'P 1'
_symmetry_int_tables_number             1
loop_
  _symmetry_equiv_pos_as_xyz
         'x, y, z' 
loop_
  _atom_site_label
  _atom_site_occupancy
  _atom_site_fract_x
  _atom_site_fract_y
  _atom_site_fract_z
  _atom_site_thermal_displace_type
  _atom_site_B_iso_or_equiv
  _atom_site_type_symbol
  _atom_site_charge
         C1        1.0000    0.56900   0.40050   0.06240   Biso      1.000     C          -0.133899           
         C2        1.0000    0.97600   0.33000   0.99100   Biso      1.000     C          -0.10698800000000001          
         C3        1.0000    0.02400   0.67000   0.00900   Biso      1.000     C          -0.106405           
         C4        1.0000    0.43100   0.59950   0.93760   Biso      1.000     C          -0.108662           
         C5        1.0000    0.16900   0.01500   0.71600   Biso      1.000     C          -0.141138           
         C6        1.0000    0.88030   0.71990   0.94960   Biso      1.000     C          0.58112   
         C7        1.0000    0.77480   0.09970   0.03220   Biso      1.000     C          0.471181  
         C8        1.0000    0.76130   0.11900   0.80960   Biso      1.000     C          0.438641  
         C9        1.0000    0.51820   0.71440   0.94780   Biso      1.000     C          0.583695  
         C10       1.0000    0.30760   0.00920   0.78790   Biso      1.000     C          0.572546  
         C11       1.0000    0.49250   0.81490   0.67110   Biso      1.000     C          0.44385699999999995           
         C12       1.0000    0.02400   0.83000   0.50900   Biso      1.000     C          -0.111174           
         C13       1.0000    0.43100   0.90050   0.43760   Biso      1.000     C          -0.130446           
         C14       1.0000    0.16900   0.48500   0.21600   Biso      1.000     C          -0.15504600000000002          
         C15       1.0000    0.49250   0.68510   0.17110   Biso      1.000     C          0.44018599999999997           
         C16       1.0000    0.30760   0.49080   0.28790   Biso      1.000     C          0.555316  
         C17       1.0000    0.51820   0.78560   0.44780   Biso      1.000     C          0.589615  
         C18       1.0000    0.76130   0.38100   0.30960   Biso      1.000     C          0.439783  
         C19       1.0000    0.77480   0.40030   0.53220   Biso      1.000     C          0.470898  
         C20       1.0000    0.83100   0.98500   0.28400   Biso      1.000     C          -0.142093           
         C21       1.0000    0.88030   0.78010   0.44960   Biso      1.000     C          0.5819449999999999  
         C22       1.0000    0.22520   0.90030   0.96780   Biso      1.000     C          0.46947   
         C23       1.0000    0.97600   0.17000   0.49100   Biso      1.000     C          -0.109945           
         C24       1.0000    0.56900   0.09950   0.56240   Biso      1.000     C          -0.107556           
         C25       1.0000    0.83100   0.51500   0.78400   Biso      1.000     C          -0.155246           
         C26       1.0000    0.11970   0.21990   0.55040   Biso      1.000     C          0.581842  
         C27       1.0000    0.22520   0.59970   0.46780   Biso      1.000     C          0.47305   
         C28       1.0000    0.11970   0.28010   0.05040   Biso      1.000     C          0.581505  
         C29       1.0000    0.48180   0.21440   0.55220   Biso      1.000     C          0.583784  
         C30       1.0000    0.23870   0.61900   0.69040   Biso      1.000     C          0.439066  
         C31       1.0000    0.50750   0.31490   0.82890   Biso      1.000     C          0.440558  
         C32       1.0000    0.50750   0.18510   0.32890   Biso      1.000     C          0.442912  
         C33       1.0000    0.69240   0.99080   0.21210   Biso      1.000     C          0.572631  
         C34       1.0000    0.48180   0.28560   0.05220   Biso      1.000     C          0.592855  
         C35       1.0000    0.23870   0.88100   0.19040   Biso      1.000     C          0.44145200000000007           
         C36       1.0000    0.69240   0.50920   0.71210   Biso      1.000     C          0.5546479999999999  
         Mn1       1.0000    0.57461   0.60038   0.81488   Biso      1.000     Mn          1.075302  
         Mn2       1.0000    0.00000   0.00000   0.00000   Biso      1.000     Mn          1.084267  
         Mn3       1.0000    0.62455   0.91357   0.87020   Biso      1.000     Mn          1.054246  
         Mn4       1.0000    0.37545   0.41357   0.62980   Biso      1.000     Mn          1.053166  
         Mn5       1.0000    0.50000   0.00000   0.00000   Biso      1.000     Mn          1.088483  
         Mn6       1.0000    0.50000   0.50000   0.50000   Biso      1.000     Mn          0.936658  
         Mn7       1.0000    0.37545   0.08643   0.12980   Biso      1.000     Mn          1.055434  
         Mn8       1.0000    0.42539   0.10038   0.68512   Biso      1.000     Mn          1.075075  
         Mn9       1.0000    0.00000   0.50000   0.50000   Biso      1.000     Mn          1.084121  
         Mn10      1.0000    0.57461   0.89962   0.31488   Biso      1.000     Mn          1.076091  
         Mn11      1.0000    0.42539   0.39962   0.18512   Biso      1.000     Mn          1.076539  
         Mn12      1.0000    0.62455   0.58643   0.37020   Biso      1.000     Mn          1.052756  
         O1        1.0000    0.55900   0.42260   0.86620   Biso      1.000     O          -0.442272           
         O2        1.0000    0.59000   0.50170   0.71870   Biso      1.000     O          -0.562283           
         O3        1.0000    0.67720   0.49850   0.64160   Biso      1.000     O          -0.41911499999999996          
         O4        1.0000    0.45680   0.23720   0.60820   Biso      1.000     O          -0.555337           
         O5        1.0000    0.47850   0.29360   0.50230   Biso      1.000     O          -0.41480500000000003          
         O6        1.0000    0.34520   0.57130   0.69800   Biso      1.000     O          -0.525029           
         O7        1.0000    0.11010   0.59880   0.62740   Biso      1.000     O          -0.44814799999999994          
         O8        1.0000    0.33650   0.52800   0.52170   Biso      1.000     O          -0.5151180000000001           
         O9        1.0000    0.11880   0.60320   0.46660   Biso      1.000     O          -0.442431           
         O10       1.0000    0.20190   0.12610   0.59080   Biso      1.000     O          -0.435546           
         O11       1.0000    0.11880   0.89680   0.96660   Biso      1.000     O          -0.44787299999999997          
         O12       1.0000    0.33650   0.97200   0.02170   Biso      1.000     O          -0.548329           
         O13       1.0000    0.11010   0.90120   0.12740   Biso      1.000     O          -0.44727799999999995          
         O14       1.0000    0.34520   0.92870   0.19800   Biso      1.000     O          -0.5259550000000001           
         O15       1.0000    0.47850   0.20640   0.00230   Biso      1.000     O          -0.447362           
         O16       1.0000    0.45680   0.26280   0.10820   Biso      1.000     O          -0.559122           
         O17       1.0000    0.67720   0.00150   0.14160   Biso      1.000     O          -0.43959899999999996          
         O18       1.0000    0.59000   0.99830   0.21870   Biso      1.000     O          -0.562102           
         O19       1.0000    0.55900   0.07740   0.36620   Biso      1.000     O          -0.444139           
         O20       1.0000    0.44320   0.20820   0.24617   Biso      1.000     O          -0.529508           
         O21       1.0000    0.15770   0.33860   0.55780   Biso      1.000     O          -0.5469890000000001           
         O22       1.0000    0.44320   0.29180   0.74617   Biso      1.000     O          -0.530666           
         O23       1.0000    0.84230   0.66140   0.44220   Biso      1.000     O          -0.546538           
         O24       1.0000    0.79810   0.87390   0.40920   Biso      1.000     O          -0.434989           
         O25       1.0000    0.88120   0.39680   0.53340   Biso      1.000     O          -0.44223500000000004          
         O26       1.0000    0.66350   0.47200   0.47830   Biso      1.000     O          -0.514808           
         O27       1.0000    0.88990   0.40120   0.37260   Biso      1.000     O          -0.449254           
         O28       1.0000    0.55680   0.79180   0.75383   Biso      1.000     O          -0.5288430000000001           
         O29       1.0000    0.44100   0.92260   0.63380   Biso      1.000     O          -0.444313           
         O30       1.0000    0.41000   0.00170   0.78130   Biso      1.000     O          -0.561573           
         O31       1.0000    0.32280   0.99850   0.85840   Biso      1.000     O          -0.43936800000000004          
         O32       1.0000    0.54320   0.73720   0.89180   Biso      1.000     O          -0.55834  
         O33       1.0000    0.52150   0.79360   0.99770   Biso      1.000     O          -0.449614           
         O34       1.0000    0.65480   0.07130   0.80200   Biso      1.000     O          -0.5260050000000001           
         O35       1.0000    0.15770   0.16140   0.05780   Biso      1.000     O          -0.547661           
         O36       1.0000    0.88990   0.09880   0.87260   Biso      1.000     O          -0.44752700000000006          
         O37       1.0000    0.88120   0.10320   0.03340   Biso      1.000     O          -0.448459           
         O38       1.0000    0.84230   0.83860   0.94220   Biso      1.000     O          -0.547215           
         O39       1.0000    0.79810   0.62610   0.90920   Biso      1.000     O          -0.434296           
         O40       1.0000    0.65480   0.42870   0.30200   Biso      1.000     O          -0.5247850000000001           
         O41       1.0000    0.52150   0.70640   0.49770   Biso      1.000     O          -0.41951000000000005          
         O42       1.0000    0.54320   0.76280   0.39180   Biso      1.000     O          -0.553478           
         O43       1.0000    0.32280   0.50150   0.35840   Biso      1.000     O          -0.41923599999999994          
         O44       1.0000    0.41000   0.49830   0.28130   Biso      1.000     O          -0.5628340000000001           
         O45       1.0000    0.44100   0.57740   0.13380   Biso      1.000     O          -0.441928           
         O46       1.0000    0.55680   0.70820   0.25383   Biso      1.000     O          -0.531027           
         O47       1.0000    0.66350   0.02800   0.97830   Biso      1.000     O          -0.548903           
         O48       1.0000    0.20190   0.37390   0.09080   Biso      1.000     O          -0.434354 