
##########################################################################
#               Crystallographic Information Format file
#               Produced by PyCifRW module
#
#  This is a CIF file.  CIF has been adopted by the International
#  Union of Crystallography as the standard for data archiving and
#  transmission.
#
#  For information on this file format, follow the CIF links at
#  http://www.iucr.org
##########################################################################

data_image0

_cell_length_a                          10.1279
_cell_length_b                          11.6495
_cell_length_c                          14.8608
_cell_angle_alpha                       91.67
_cell_angle_beta                        90
_cell_angle_gamma                       90
_symmetry_space_group_name_H-M          'P 1'
_symmetry_int_tables_number             1
loop_
  _symmetry_equiv_pos_as_xyz
         'x, y, z' 
loop_
  _atom_site_label
  _atom_site_occupancy
  _atom_site_fract_x
  _atom_site_fract_y
  _atom_site_fract_z
  _atom_site_thermal_displace_type
  _atom_site_B_iso_or_equiv
  _atom_site_type_symbol
  _atom_site_charge
         C1        1.0000    0.28160   0.06718   0.94778   Biso      1.000     C          0.53168   
         C2        1.0000    0.62740   0.55053   0.31283   Biso      1.000     C          0.518927  
         C3        1.0000    0.20930   0.92622   0.45092   Biso      1.000     C          0.525113  
         C4        1.0000    0.50730   0.98100   0.28850   Biso      1.000     C          0.525183  
         C5        1.0000    0.31860   0.66885   0.17085   Biso      1.000     C          0.533404  
         C6        1.0000    0.71840   0.93282   0.05222   Biso      1.000     C          0.53168   
         C7        1.0000    0.10170   0.74269   0.96809   Biso      1.000     C          0.529067  
         C8        1.0000    0.12740   0.94947   0.18717   Biso      1.000     C          0.518921  
         C9        1.0000    0.70930   0.57378   0.04908   Biso      1.000     C          0.525112  
         C10       1.0000    0.00730   0.51900   0.21150   Biso      1.000     C          0.5251819999999999  
         C11       1.0000    0.81860   0.83115   0.32915   Biso      1.000     C          0.533404  
         C12       1.0000    0.60170   0.75731   0.53191   Biso      1.000     C          0.5290699999999999  
         C13       1.0000    0.21840   0.56718   0.44778   Biso      1.000     C          0.531674  
         C14       1.0000    0.87260   0.05053   0.81283   Biso      1.000     C          0.518921  
         C15       1.0000    0.78160   0.43282   0.55222   Biso      1.000     C          0.531674  
         C16       1.0000    0.39830   0.24269   0.46809   Biso      1.000     C          0.5290699999999999  
         C17       1.0000    0.37260   0.44947   0.68717   Biso      1.000     C          0.518927  
         C18       1.0000    0.79070   0.07378   0.54908   Biso      1.000     C          0.525113  
         C19       1.0000    0.49270   0.01900   0.71150   Biso      1.000     C          0.525183  
         C20       1.0000    0.68140   0.33115   0.82915   Biso      1.000     C          0.533404  
         C21       1.0000    0.89830   0.25731   0.03191   Biso      1.000     C          0.529067  
         C22       1.0000    0.29070   0.42622   0.95092   Biso      1.000     C          0.525112  
         C23       1.0000    0.18140   0.16885   0.67085   Biso      1.000     C          0.533404  
         C24       1.0000    0.99270   0.48100   0.78850   Biso      1.000     C          0.5251819999999999  
         H1        1.0000    0.31230   0.47550   0.73230   Biso      1.000     H          0.0293    
         H2        1.0000    0.34240   0.19890   0.42880   Biso      1.000     H          0.030363  
         H3        1.0000    0.02340   0.47850   0.26500   Biso      1.000     H          0.031587  
         H4        1.0000    0.88120   0.05400   0.54260   Biso      1.000     H          0.031958999999999994          
         H5        1.0000    0.79790   0.49420   0.51300   Biso      1.000     H          0.034473000000000004          
         H6        1.0000    0.47660   0.97850   0.76500   Biso      1.000     H          0.031587  
         H7        1.0000    0.75060   0.36390   0.86460   Biso      1.000     H          0.028043000000000002          
         H8        1.0000    0.29790   0.00580   0.98700   Biso      1.000     H          0.034474  
         H9        1.0000    0.61880   0.55400   0.04260   Biso      1.000     H          0.031958  
         H10       1.0000    0.18770   0.97550   0.23230   Biso      1.000     H          0.029301  
         H11       1.0000    0.15760   0.69890   0.92880   Biso      1.000     H          0.030363  
         H12       1.0000    0.70210   0.99420   0.01300   Biso      1.000     H          0.034474  
         H13       1.0000    0.24940   0.63610   0.13540   Biso      1.000     H          0.028043000000000002          
         H14       1.0000    0.52340   0.02150   0.23500   Biso      1.000     H          0.031587  
         H15       1.0000    0.74940   0.86390   0.36460   Biso      1.000     H          0.028043000000000002          
         H16       1.0000    0.11880   0.94600   0.45740   Biso      1.000     H          0.031958999999999994          
         H17       1.0000    0.65760   0.80110   0.57120   Biso      1.000     H          0.030363  
         H18       1.0000    0.25060   0.13610   0.63540   Biso      1.000     H          0.028043000000000002          
         H19       1.0000    0.97660   0.52150   0.73500   Biso      1.000     H          0.031587  
         H20       1.0000    0.38120   0.44600   0.95740   Biso      1.000     H          0.031958999999999994          
         H21       1.0000    0.81230   0.02450   0.76770   Biso      1.000     H          0.029301  
         H22       1.0000    0.84240   0.30110   0.07120   Biso      1.000     H          0.030363  
         H23       1.0000    0.68770   0.52450   0.26770   Biso      1.000     H          0.0293    
         H24       1.0000    0.20210   0.50580   0.48700   Biso      1.000     H          0.034473000000000004          
         Mn1       1.0000    0.91559   0.75683   0.13115   Biso      1.000     Mn          0.981771  
         Mn2       1.0000    0.00000   0.00000   0.00000   Biso      1.000     Mn          0.814434  
         Mn3       1.0000    0.50000   0.50000   0.50000   Biso      1.000     Mn          0.814419  
         Mn4       1.0000    0.41559   0.74317   0.36885   Biso      1.000     Mn          0.981778  
         Mn5       1.0000    0.60029   0.76045   0.18492   Biso      1.000     Mn          0.9765879999999999  
         Mn6       1.0000    0.08441   0.24317   0.86885   Biso      1.000     Mn          0.981771  
         Mn7       1.0000    0.89971   0.26045   0.68492   Biso      1.000     Mn          0.9765879999999999  
         Mn8       1.0000    0.10029   0.73955   0.31508   Biso      1.000     Mn          0.9765879999999999  
         Mn9       1.0000    0.39971   0.23955   0.81508   Biso      1.000     Mn          0.9765879999999999  
         Mn10      1.0000    0.00000   0.50000   0.00000   Biso      1.000     Mn          0.9974620000000001  
         Mn11      1.0000    0.50000   0.00000   0.50000   Biso      1.000     Mn          0.9974620000000001  
         Mn12      1.0000    0.58441   0.25683   0.63115   Biso      1.000     Mn          0.981778  
         O1        1.0000    0.07452   0.18507   0.63233   Biso      1.000     O          -0.509908           
         O2        1.0000    0.89305   0.15360   0.03739   Biso      1.000     O          -0.46593100000000004          
         O3        1.0000    0.00050   0.37263   0.78070   Biso      1.000     O          -0.556534           
         O4        1.0000    0.00373   0.53831   0.85825   Biso      1.000     O          -0.5012449999999999           
         O5        1.0000    0.26268   0.34636   0.89391   Biso      1.000     O          -0.549296           
         O6        1.0000    0.21092   0.48031   0.99856   Biso      1.000     O          -0.499896           
         O7        1.0000    0.92399   0.14844   0.80253   Biso      1.000     O          -0.550038           
         O8        1.0000    0.89276   0.98603   0.87512   Biso      1.000     O          -0.46614799999999995          
         O9        1.0000    0.97118   0.31354   0.97885   Biso      1.000     O          -0.557912           
         O10       1.0000    0.16232   0.09922   0.94018   Biso      1.000     O          -0.505872           
         O11       1.0000    0.50373   0.96169   0.64175   Biso      1.000     O          -0.5012449999999999           
         O12       1.0000    0.70728   0.30811   0.74728   Biso      1.000     O          -0.552447           
         O13       1.0000    0.57452   0.31493   0.86767   Biso      1.000     O          -0.509908           
         O14       1.0000    0.50050   0.12737   0.71930   Biso      1.000     O          -0.556535           
         O15       1.0000    0.20728   0.19189   0.75272   Biso      1.000     O          -0.552447           
         O16       1.0000    0.76268   0.15364   0.60609   Biso      1.000     O          -0.549295           
         O17       1.0000    0.71092   0.01969   0.50144   Biso      1.000     O          -0.49989700000000004          
         O18       1.0000    0.42399   0.35156   0.69747   Biso      1.000     O          -0.550038           
         O19       1.0000    0.39276   0.51397   0.62488   Biso      1.000     O          -0.466154           
         O20       1.0000    0.47118   0.18646   0.52115   Biso      1.000     O          -0.55791  
         O21       1.0000    0.39305   0.34640   0.46261   Biso      1.000     O          -0.46591899999999997          
         O22       1.0000    0.37827   0.10742   0.90954   Biso      1.000     O          -0.498176           
         O23       1.0000    0.12173   0.60742   0.40954   Biso      1.000     O          -0.498179           
         O24       1.0000    0.57601   0.64844   0.30253   Biso      1.000     O          -0.550038           
         O25       1.0000    0.60695   0.65360   0.53739   Biso      1.000     O          -0.46591899999999997          
         O26       1.0000    0.66232   0.40078   0.55982   Biso      1.000     O          -0.505875           
         O27       1.0000    0.79272   0.80811   0.24728   Biso      1.000     O          -0.552447           
         O28       1.0000    0.92548   0.81493   0.36767   Biso      1.000     O          -0.509908           
         O29       1.0000    0.99950   0.62737   0.21930   Biso      1.000     O          -0.556534           
         O30       1.0000    0.99627   0.46169   0.14175   Biso      1.000     O          -0.5012449999999999           
         O31       1.0000    0.73732   0.65364   0.10609   Biso      1.000     O          -0.549295           
         O32       1.0000    0.78908   0.51969   0.00144   Biso      1.000     O          -0.499896           
         O33       1.0000    0.07601   0.85156   0.19747   Biso      1.000     O          -0.550038           
         O34       1.0000    0.10724   0.01397   0.12488   Biso      1.000     O          -0.46614799999999995          
         O35       1.0000    0.02882   0.68646   0.02115   Biso      1.000     O          -0.557912           
         O36       1.0000    0.10695   0.84640   0.96261   Biso      1.000     O          -0.46593100000000004          
         O37       1.0000    0.83768   0.90078   0.05982   Biso      1.000     O          -0.505872           
         O38       1.0000    0.62173   0.89258   0.09046   Biso      1.000     O          -0.498175           
         O39       1.0000    0.29272   0.69189   0.25272   Biso      1.000     O          -0.552447           
         O40       1.0000    0.42548   0.68507   0.13233   Biso      1.000     O          -0.509908           
         O41       1.0000    0.49950   0.87263   0.28070   Biso      1.000     O          -0.556535           
         O42       1.0000    0.49627   0.03831   0.35825   Biso      1.000     O          -0.5012449999999999           
         O43       1.0000    0.23732   0.84636   0.39391   Biso      1.000     O          -0.549295           
         O44       1.0000    0.28908   0.98031   0.49856   Biso      1.000     O          -0.49989700000000004          
         O45       1.0000    0.60724   0.48603   0.37512   Biso      1.000     O          -0.466154           
         O46       1.0000    0.52882   0.81354   0.47885   Biso      1.000     O          -0.55791  
         O47       1.0000    0.33768   0.59922   0.44018   Biso      1.000     O          -0.505875           
         O48       1.0000    0.87827   0.39258   0.59046   Biso      1.000     O          -0.498179 