
##########################################################################
#               Crystallographic Information Format file
#               Produced by PyCifRW module
#
#  This is a CIF file.  CIF has been adopted by the International
#  Union of Crystallography as the standard for data archiving and
#  transmission.
#
#  For information on this file format, follow the CIF links at
#  http://www.iucr.org
##########################################################################

data_image0

_cell_length_a                          26.2911
_cell_length_b                          13.5761
_cell_length_c                          6.762
_cell_angle_alpha                       90
_cell_angle_beta                        92.443
_cell_angle_gamma                       90
_symmetry_space_group_name_H-M          'P 1'
_symmetry_int_tables_number             1
loop_
  _symmetry_equiv_pos_as_xyz
         'x, y, z' 
loop_
  _atom_site_label
  _atom_site_occupancy
  _atom_site_fract_x
  _atom_site_fract_y
  _atom_site_fract_z
  _atom_site_thermal_displace_type
  _atom_site_B_iso_or_equiv
  _atom_site_type_symbol
  _atom_site_charge
         C1        1.0000    0.17840   0.45290   0.06910   Biso      1.000     C          0.066696  
         C2        1.0000    0.17840   0.54710   0.56910   Biso      1.000     C          0.066696  
         C3        1.0000    0.20050   0.45480   0.56690   Biso      1.000     C          -0.043614           
         C4        1.0000    0.25340   0.44870   0.58930   Biso      1.000     C          -0.077078           
         C5        1.0000    0.16780   0.63540   0.04500   Biso      1.000     C          0.587611  
         C6        1.0000    0.28136   0.53550   0.61120   Biso      1.000     C          -0.10105700000000001          
         C7        1.0000    0.25510   0.62430   0.61540   Biso      1.000     C          0.080915  
         C8        1.0000    0.16780   0.36460   0.54500   Biso      1.000     C          0.587611  
         C9        1.0000    0.33860   0.53620   0.63540   Biso      1.000     C          0.7144560000000001  
         C10       1.0000    0.74660   0.55130   0.41070   Biso      1.000     C          -0.077078           
         C11       1.0000    0.79950   0.54520   0.43310   Biso      1.000     C          -0.043619           
         C12       1.0000    0.82160   0.45290   0.43090   Biso      1.000     C          0.066701  
         C13       1.0000    0.83860   0.96380   0.13540   Biso      1.000     C          0.7144560000000001  
         C14       1.0000    0.66780   0.13540   0.04500   Biso      1.000     C          0.587611  
         C15       1.0000    0.67840   0.04710   0.56910   Biso      1.000     C          0.066696  
         C16       1.0000    0.71864   0.46450   0.38880   Biso      1.000     C          -0.10105599999999999          
         C17       1.0000    0.70050   0.95480   0.56690   Biso      1.000     C          -0.043614           
         C18       1.0000    0.78136   0.03550   0.61120   Biso      1.000     C          -0.10105599999999999          
         C19       1.0000    0.75510   0.12430   0.61540   Biso      1.000     C          0.080915  
         C20       1.0000    0.66780   0.86460   0.54500   Biso      1.000     C          0.587611  
         C21       1.0000    0.83860   0.03620   0.63540   Biso      1.000     C          0.7144560000000001  
         C22       1.0000    0.75510   0.87570   0.11540   Biso      1.000     C          0.080915  
         C23       1.0000    0.78136   0.96450   0.11120   Biso      1.000     C          -0.10105700000000001          
         C24       1.0000    0.16140   0.96380   0.36460   Biso      1.000     C          0.7144560000000001  
         C25       1.0000    0.75340   0.05130   0.08930   Biso      1.000     C          -0.077079           
         C26       1.0000    0.70050   0.04520   0.06690   Biso      1.000     C          -0.043619           
         C27       1.0000    0.67840   0.95290   0.06910   Biso      1.000     C          0.066701  
         C28       1.0000    0.20050   0.54520   0.06690   Biso      1.000     C          -0.043614           
         C29       1.0000    0.25340   0.55130   0.08930   Biso      1.000     C          -0.077078           
         C30       1.0000    0.28136   0.46450   0.11120   Biso      1.000     C          -0.10105700000000001          
         C31       1.0000    0.25510   0.37570   0.11540   Biso      1.000     C          0.080915  
         C32       1.0000    0.75340   0.94870   0.58930   Biso      1.000     C          -0.077078           
         C33       1.0000    0.74490   0.37570   0.38460   Biso      1.000     C          0.080915  
         C34       1.0000    0.33860   0.46380   0.13540   Biso      1.000     C          0.7144560000000001  
         C35       1.0000    0.83220   0.63540   0.45500   Biso      1.000     C          0.587611  
         C36       1.0000    0.24490   0.87570   0.38460   Biso      1.000     C          0.080916  
         C37       1.0000    0.21864   0.96450   0.38880   Biso      1.000     C          -0.10105700000000001          
         C38       1.0000    0.83220   0.36460   0.95500   Biso      1.000     C          0.587611  
         C39       1.0000    0.24660   0.05130   0.41070   Biso      1.000     C          -0.077079           
         C40       1.0000    0.29950   0.04520   0.43310   Biso      1.000     C          -0.043619           
         C41       1.0000    0.74490   0.62430   0.88460   Biso      1.000     C          0.080915  
         C42       1.0000    0.71864   0.53550   0.88880   Biso      1.000     C          -0.10105700000000001          
         C43       1.0000    0.32160   0.04710   0.93090   Biso      1.000     C          0.066696  
         C44       1.0000    0.66140   0.53620   0.86460   Biso      1.000     C          0.7144560000000001  
         C45       1.0000    0.24660   0.94870   0.91070   Biso      1.000     C          -0.077079           
         C46       1.0000    0.74660   0.44870   0.91070   Biso      1.000     C          -0.077079           
         C47       1.0000    0.29950   0.95480   0.93310   Biso      1.000     C          -0.043614           
         C48       1.0000    0.79950   0.45480   0.93310   Biso      1.000     C          -0.043619           
         C49       1.0000    0.66140   0.46380   0.36460   Biso      1.000     C          0.7144560000000001  
         C50       1.0000    0.82160   0.54710   0.93090   Biso      1.000     C          0.066701  
         C51       1.0000    0.21864   0.03550   0.88880   Biso      1.000     C          -0.10105599999999999          
         C52       1.0000    0.16140   0.03620   0.86460   Biso      1.000     C          0.7144560000000001  
         C53       1.0000    0.33220   0.86460   0.95500   Biso      1.000     C          0.587611  
         C54       1.0000    0.32160   0.95290   0.43090   Biso      1.000     C          0.066701  
         C55       1.0000    0.24490   0.12430   0.88460   Biso      1.000     C          0.080915  
         C56       1.0000    0.33220   0.13540   0.45500   Biso      1.000     C          0.587611  
         H1        1.0000    0.64310   0.94900   0.05170   Biso      1.000     H          0.109227  
         H2        1.0000    0.73030   0.38790   0.91040   Biso      1.000     H          0.123926  
         H3        1.0000    0.72620   0.68200   0.86630   Biso      1.000     H          0.104272  
         H4        1.0000    0.85690   0.55100   0.94830   Biso      1.000     H          0.109227  
         H5        1.0000    0.76970   0.11210   0.08960   Biso      1.000     H          0.123926  
         H6        1.0000    0.14310   0.44900   0.05170   Biso      1.000     H          0.109227  
         H7        1.0000    0.27380   0.31800   0.13370   Biso      1.000     H          0.104272  
         H8        1.0000    0.26970   0.61210   0.08960   Biso      1.000     H          0.123926  
         H9        1.0000    0.23030   0.11210   0.41040   Biso      1.000     H          0.123926  
         H10       1.0000    0.77380   0.18200   0.63370   Biso      1.000     H          0.104272  
         H11       1.0000    0.73030   0.61210   0.41040   Biso      1.000     H          0.123926  
         H12       1.0000    0.14310   0.55100   0.55170   Biso      1.000     H          0.109227  
         H13       1.0000    0.22620   0.18200   0.86630   Biso      1.000     H          0.104272  
         H14       1.0000    0.27380   0.68200   0.63370   Biso      1.000     H          0.104272  
         H15       1.0000    0.23030   0.88790   0.91040   Biso      1.000     H          0.123926  
         H16       1.0000    0.85690   0.44900   0.44830   Biso      1.000     H          0.109227  
         H17       1.0000    0.22620   0.81800   0.36630   Biso      1.000     H          0.104272  
         H18       1.0000    0.26970   0.38790   0.58960   Biso      1.000     H          0.123926  
         H19       1.0000    0.35690   0.94900   0.44830   Biso      1.000     H          0.109227  
         H20       1.0000    0.77380   0.81800   0.13370   Biso      1.000     H          0.104272  
         H21       1.0000    0.64310   0.05100   0.55170   Biso      1.000     H          0.109227  
         H22       1.0000    0.72620   0.31800   0.36630   Biso      1.000     H          0.104272  
         H23       1.0000    0.76970   0.88790   0.58960   Biso      1.000     H          0.123926  
         H24       1.0000    0.35690   0.05100   0.94830   Biso      1.000     H          0.109227  
         N1        1.0000    0.70429   0.86880   0.09440   Biso      1.000     N          -0.271813           
         N2        1.0000    0.79571   0.36880   0.40560   Biso      1.000     N          -0.271813           
         N3        1.0000    0.20429   0.36880   0.09440   Biso      1.000     N          -0.271813           
         N4        1.0000    0.29571   0.86880   0.40560   Biso      1.000     N          -0.271813           
         N5        1.0000    0.79571   0.63120   0.90560   Biso      1.000     N          -0.271813           
         N6        1.0000    0.20429   0.63120   0.59440   Biso      1.000     N          -0.271813           
         N7        1.0000    0.29571   0.13120   0.90560   Biso      1.000     N          -0.271813           
         N8        1.0000    0.70429   0.13120   0.59440   Biso      1.000     N          -0.271813           
         O1        1.0000    0.12143   0.62470   0.99270   Biso      1.000     O          -0.650833           
         O2        1.0000    0.48452   0.76050   0.07810   Biso      1.000     O          -0.734671           
         O3        1.0000    0.45545   0.63980   0.29070   Biso      1.000     O          -0.761473           
         O4        1.0000    0.14042   0.11550   0.80910   Biso      1.000     O          -0.711923           
         O5        1.0000    0.13805   0.95970   0.90410   Biso      1.000     O          -0.694553           
         O6        1.0000    0.31320   0.78080   0.92280   Biso      1.000     O          -0.6416310000000001           
         O7        1.0000    0.37857   0.87530   0.00730   Biso      1.000     O          -0.650833           
         O8        1.0000    0.87857   0.62470   0.50730   Biso      1.000     O          -0.650833           
         O9        1.0000    0.81320   0.71920   0.42280   Biso      1.000     O          -0.6416310000000001           
         O10       1.0000    0.63805   0.54030   0.40410   Biso      1.000     O          -0.694553           
         O11       1.0000    0.64042   0.38450   0.30910   Biso      1.000     O          -0.711923           
         O12       1.0000    0.95545   0.86020   0.79070   Biso      1.000     O          -0.761473           
         O13       1.0000    0.98452   0.73950   0.57810   Biso      1.000     O          -0.734671           
         O14       1.0000    0.37857   0.12470   0.50730   Biso      1.000     O          -0.650833           
         O15       1.0000    0.98452   0.26050   0.07810   Biso      1.000     O          -0.734671           
         O16       1.0000    0.95545   0.13980   0.29070   Biso      1.000     O          -0.761473           
         O17       1.0000    0.64042   0.61550   0.80910   Biso      1.000     O          -0.711923           
         O18       1.0000    0.63805   0.45970   0.90410   Biso      1.000     O          -0.694553           
         O19       1.0000    0.81320   0.28080   0.92280   Biso      1.000     O          -0.6416310000000001           
         O20       1.0000    0.87857   0.37530   0.00730   Biso      1.000     O          -0.650833           
         O21       1.0000    0.12143   0.37530   0.49270   Biso      1.000     O          -0.650833           
         O22       1.0000    0.14042   0.88450   0.30910   Biso      1.000     O          -0.711923           
         O23       1.0000    0.18680   0.28080   0.57720   Biso      1.000     O          -0.6416310000000001           
         O24       1.0000    0.31320   0.21920   0.42280   Biso      1.000     O          -0.6416310000000001           
         O25       1.0000    0.18680   0.71920   0.07720   Biso      1.000     O          -0.6416310000000001           
         O26       1.0000    0.36195   0.54030   0.09590   Biso      1.000     O          -0.694553           
         O27       1.0000    0.35958   0.38450   0.19090   Biso      1.000     O          -0.711923           
         O28       1.0000    0.04455   0.86020   0.70930   Biso      1.000     O          -0.761473           
         O29       1.0000    0.01548   0.73950   0.92190   Biso      1.000     O          -0.734671           
         O30       1.0000    0.13805   0.04030   0.40410   Biso      1.000     O          -0.694553           
         O31       1.0000    0.45545   0.36020   0.79070   Biso      1.000     O          -0.761473           
         O32       1.0000    0.51548   0.76050   0.42190   Biso      1.000     O          -0.734671           
         O33       1.0000    0.54455   0.63980   0.20930   Biso      1.000     O          -0.761473           
         O34       1.0000    0.85958   0.11550   0.69090   Biso      1.000     O          -0.711923           
         O35       1.0000    0.36195   0.45970   0.59590   Biso      1.000     O          -0.694553           
         O36       1.0000    0.68680   0.78080   0.57720   Biso      1.000     O          -0.6416310000000001           
         O37       1.0000    0.48452   0.23950   0.57810   Biso      1.000     O          -0.734671           
         O38       1.0000    0.01548   0.26050   0.42190   Biso      1.000     O          -0.734671           
         O39       1.0000    0.04455   0.13980   0.20930   Biso      1.000     O          -0.761473           
         O40       1.0000    0.35958   0.61550   0.69090   Biso      1.000     O          -0.711923           
         O41       1.0000    0.62143   0.12470   0.99270   Biso      1.000     O          -0.650833           
         O42       1.0000    0.68680   0.21920   0.07720   Biso      1.000     O          -0.6416310000000001           
         O43       1.0000    0.86195   0.04030   0.09590   Biso      1.000     O          -0.694553           
         O44       1.0000    0.85958   0.88450   0.19090   Biso      1.000     O          -0.711923           
         O45       1.0000    0.54455   0.36020   0.70930   Biso      1.000     O          -0.761473           
         O46       1.0000    0.51548   0.23950   0.92190   Biso      1.000     O          -0.734671           
         O47       1.0000    0.62143   0.87530   0.49270   Biso      1.000     O          -0.650833           
         O48       1.0000    0.86195   0.95970   0.59590   Biso      1.000     O          -0.694553           
         S1        1.0000    0.50000   0.70132   0.25000   Biso      1.000     S          1.470149  
         S2        1.0000    0.00000   0.20132   0.25000   Biso      1.000     S          1.47015   
         S3        1.0000    0.50000   0.29868   0.75000   Biso      1.000     S          1.470149  
         S4        1.0000    0.00000   0.79868   0.75000   Biso      1.000     S          1.47015   
         Tb1       1.0000    0.89641   0.80685   0.48843   Biso      1.000     Tb          2.166468  
         Tb2       1.0000    0.60359   0.30685   0.01157   Biso      1.000     Tb          2.166468  
         Tb3       1.0000    0.10359   0.80685   0.01157   Biso      1.000     Tb          2.166468  
         Tb4       1.0000    0.60359   0.69315   0.51157   Biso      1.000     Tb          2.166467  
         Tb5       1.0000    0.10359   0.19315   0.51157   Biso      1.000     Tb          2.166468  
         Tb6       1.0000    0.39641   0.69315   0.98843   Biso      1.000     Tb          2.166468  
         Tb7       1.0000    0.39641   0.30685   0.48843   Biso      1.000     Tb          2.166468  
         Tb8       1.0000    0.89641   0.19315   0.98843   Biso      1.000     Tb          2.166468 