
##########################################################################
#               Crystallographic Information Format file
#               Produced by PyCifRW module
#
#  This is a CIF file.  CIF has been adopted by the International
#  Union of Crystallography as the standard for data archiving and
#  transmission.
#
#  For information on this file format, follow the CIF links at
#  http://www.iucr.org
##########################################################################

data_image0

_cell_length_a                          13.8224
_cell_length_b                          13.8224
_cell_length_c                          14.376
_cell_angle_alpha                       61.9182
_cell_angle_beta                        61.9182
_cell_angle_gamma                       79.7099
_symmetry_space_group_name_H-M          'P 1'
_symmetry_int_tables_number             1
loop_
  _symmetry_equiv_pos_as_xyz
         'x, y, z' 
loop_
  _atom_site_label
  _atom_site_occupancy
  _atom_site_fract_x
  _atom_site_fract_y
  _atom_site_fract_z
  _atom_site_thermal_displace_type
  _atom_site_B_iso_or_equiv
  _atom_site_type_symbol
  _atom_site_charge
         C1        1.0000    0.59650   0.95150   0.17550   Biso      1.000     C          -0.10851199999999998          
         C2        1.0000    0.99250   0.79090   0.11750   Biso      1.000     C          0.596717  
         C3        1.0000    0.16760   0.88860   0.24310   Biso      1.000     C          -0.5683229999999999           
         C4        1.0000    0.08270   0.96310   0.27900   Biso      1.000     C          0.43746199999999996           
         C5        1.0000    0.32170   0.96150   0.41490   Biso      1.000     C          0.611839  
         C6        1.0000    0.62640   0.01700   0.28270   Biso      1.000     C          -0.11676800000000001          
         C7        1.0000    0.51590   0.01390   0.34890   Biso      1.000     C          -0.135268           
         C8        1.0000    0.44300   0.97020   0.33620   Biso      1.000     C          -0.08509  
         C9        1.0000    0.48400   0.94640   0.24560   Biso      1.000     C          -0.119021           
         C10       1.0000    0.66820   0.98560   0.19330   Biso      1.000     C          -0.019249000000000002         
         C11       1.0000    0.79090   0.99250   0.11750   Biso      1.000     C          0.596713  
         C12       1.0000    0.11140   0.83240   0.75690   Biso      1.000     C          -0.5683590000000001           
         C13       1.0000    0.03690   0.91730   0.72100   Biso      1.000     C          0.43745900000000004           
         C14       1.0000    0.98300   0.37360   0.71730   Biso      1.000     C          -0.11676800000000001          
         C15       1.0000    0.98610   0.48410   0.65110   Biso      1.000     C          -0.13527  
         C16       1.0000    0.02980   0.55700   0.66380   Biso      1.000     C          -0.08508500000000001          
         C17       1.0000    0.98560   0.66820   0.19330   Biso      1.000     C          -0.019272           
         C18       1.0000    0.05360   0.51600   0.75440   Biso      1.000     C          -0.119023           
         C19       1.0000    0.95150   0.59650   0.17550   Biso      1.000     C          -0.10848499999999998          
         C20       1.0000    0.97020   0.44300   0.33620   Biso      1.000     C          -0.085087           
         C21       1.0000    0.83240   0.11140   0.75690   Biso      1.000     C          -0.5683229999999999           
         C22       1.0000    0.91730   0.03690   0.72100   Biso      1.000     C          0.437458  
         C23       1.0000    0.67830   0.03850   0.58510   Biso      1.000     C          0.6118399999999999  
         C24       1.0000    0.37360   0.98300   0.71730   Biso      1.000     C          -0.11676800000000001          
         C25       1.0000    0.48410   0.98610   0.65110   Biso      1.000     C          -0.135268           
         C26       1.0000    0.55700   0.02980   0.66380   Biso      1.000     C          -0.085089           
         C27       1.0000    0.51600   0.05360   0.75440   Biso      1.000     C          -0.11902  
         C28       1.0000    0.40350   0.04850   0.82450   Biso      1.000     C          -0.10851199999999998          
         C29       1.0000    0.33180   0.01440   0.80670   Biso      1.000     C          -0.019247999999999998         
         C30       1.0000    0.20910   0.00750   0.88250   Biso      1.000     C          0.596713  
         C31       1.0000    0.88860   0.16760   0.24310   Biso      1.000     C          -0.5683590000000001           
         C32       1.0000    0.96310   0.08270   0.27900   Biso      1.000     C          0.43745600000000007           
         C33       1.0000    0.96150   0.32170   0.41490   Biso      1.000     C          0.611851  
         C34       1.0000    0.01700   0.62640   0.28270   Biso      1.000     C          -0.11676500000000001          
         C35       1.0000    0.01390   0.51590   0.34890   Biso      1.000     C          -0.135268           
         C36       1.0000    0.94640   0.48400   0.24560   Biso      1.000     C          -0.11902599999999999          
         C37       1.0000    0.04850   0.40350   0.82450   Biso      1.000     C          -0.10851  
         C38       1.0000    0.03850   0.67830   0.58510   Biso      1.000     C          0.61185   
         C39       1.0000    0.00750   0.20910   0.88250   Biso      1.000     C          0.596715  
         C40       1.0000    0.01440   0.33180   0.80670   Biso      1.000     C          -0.019247999999999998         
         H1        1.0000    0.17080   0.88840   0.17500   Biso      1.000     H          0.200794  
         H2        1.0000    0.14920   0.81560   0.30640   Biso      1.000     H          0.185004  
         H3        1.0000    0.67410   0.04050   0.29780   Biso      1.000     H          0.11212899999999999           
         H4        1.0000    0.48900   0.04160   0.40370   Biso      1.000     H          0.101272  
         H5        1.0000    0.62230   0.93070   0.11530   Biso      1.000     H          0.11424100000000001           
         H6        1.0000    0.25750   0.07410   0.45900   Biso      1.000     H          0.39410100000000003           
         H7        1.0000    0.08640   0.76220   0.77550   Biso      1.000     H          0.18853699999999998           
         H8        1.0000    0.11160   0.82920   0.82500   Biso      1.000     H          0.200792  
         H9        1.0000    0.18440   0.85080   0.69360   Biso      1.000     H          0.18504500000000002           
         H10       1.0000    0.95950   0.32590   0.70220   Biso      1.000     H          0.11212799999999999           
         H11       1.0000    0.95840   0.51100   0.59630   Biso      1.000     H          0.101271  
         H12       1.0000    0.07410   0.56390   0.77150   Biso      1.000     H          0.10398299999999999           
         H13       1.0000    0.06930   0.37770   0.88470   Biso      1.000     H          0.11424000000000001           
         H14       1.0000    0.92590   0.74250   0.54100   Biso      1.000     H          0.3941    
         H15       1.0000    0.23780   0.91360   0.22450   Biso      1.000     H          0.188538  
         H16       1.0000    0.07410   0.25750   0.45900   Biso      1.000     H          0.39410100000000003           
         H17       1.0000    0.43610   0.92590   0.22850   Biso      1.000     H          0.103984  
         H18       1.0000    0.92590   0.43610   0.22850   Biso      1.000     H          0.10398299999999999           
         H19       1.0000    0.76220   0.08640   0.77550   Biso      1.000     H          0.188539  
         H20       1.0000    0.93070   0.62230   0.11530   Biso      1.000     H          0.114238  
         H21       1.0000    0.85080   0.18440   0.69360   Biso      1.000     H          0.185004  
         H22       1.0000    0.32590   0.95950   0.70220   Biso      1.000     H          0.11212899999999999           
         H23       1.0000    0.51100   0.95840   0.59630   Biso      1.000     H          0.101272  
         H24       1.0000    0.56390   0.07410   0.77150   Biso      1.000     H          0.103984  
         H25       1.0000    0.37770   0.06930   0.88470   Biso      1.000     H          0.11424100000000001           
         H26       1.0000    0.82920   0.11160   0.82500   Biso      1.000     H          0.200794  
         H27       1.0000    0.91360   0.23780   0.22450   Biso      1.000     H          0.18853699999999998           
         H28       1.0000    0.88840   0.17080   0.17500   Biso      1.000     H          0.200793  
         H29       1.0000    0.81560   0.14920   0.30640   Biso      1.000     H          0.18504500000000002           
         H30       1.0000    0.04050   0.67410   0.29780   Biso      1.000     H          0.11212799999999999           
         H31       1.0000    0.04160   0.48900   0.40370   Biso      1.000     H          0.101271  
         H32       1.0000    0.74250   0.92590   0.54100   Biso      1.000     H          0.3941    
         N1        1.0000    0.02500   0.94900   0.62410   Biso      1.000     N          -0.31768  
         N2        1.0000    0.02780   0.02780   0.21770   Biso      1.000     N          -0.40278800000000003          
         N3        1.0000    0.05100   0.97500   0.37590   Biso      1.000     N          -0.317682           
         N4        1.0000    0.97500   0.05100   0.37590   Biso      1.000     N          -0.317646           
         N5        1.0000    0.94900   0.02500   0.62410   Biso      1.000     N          -0.317648           
         N6        1.0000    0.97220   0.97220   0.78230   Biso      1.000     N          -0.40278800000000003          
         O1        1.0000    0.28570   0.01090   0.47680   Biso      1.000     O          -0.5642659999999999           
         O2        1.0000    0.97790   0.82250   0.02820   Biso      1.000     O          -0.563673           
         O3        1.0000    0.01210   0.85230   0.14910   Biso      1.000     O          -0.576448           
         O4        1.0000    0.91730   0.26330   0.40760   Biso      1.000     O          -0.49931499999999995          
         O5        1.0000    0.17750   0.02210   0.97180   Biso      1.000     O          -0.563671           
         O6        1.0000    0.01090   0.28570   0.47680   Biso      1.000     O          -0.5642659999999999           
         O7        1.0000    0.26330   0.91730   0.40760   Biso      1.000     O          -0.49931000000000003          
         O8        1.0000    0.14770   0.98790   0.85090   Biso      1.000     O          -0.576446           
         O9        1.0000    0.85230   0.01210   0.14910   Biso      1.000     O          -0.576446           
         O10       1.0000    0.71430   0.98910   0.52320   Biso      1.000     O          -0.564267           
         O11       1.0000    0.98910   0.71430   0.52320   Biso      1.000     O          -0.5642659999999999           
         O12       1.0000    0.08270   0.73670   0.59240   Biso      1.000     O          -0.499316           
         O13       1.0000    0.98790   0.14770   0.85090   Biso      1.000     O          -0.576447           
         O14       1.0000    0.02210   0.17750   0.97180   Biso      1.000     O          -0.5636720000000001           
         O15       1.0000    0.73670   0.08270   0.59240   Biso      1.000     O          -0.49931000000000003          
         O16       1.0000    0.82250   0.97790   0.02820   Biso      1.000     O          -0.56367  
         Zn1       1.0000    0.98066   0.98066   0.91503   Biso      1.000     Zn          0.889582  
         Zn2       1.0000    0.01934   0.01934   0.08497   Biso      1.000     Zn          0.889582  
         Zn3       1.0000    0.89561   0.10439   0.50000   Biso      1.000     Zn          0.768221  
         Zn4       1.0000    0.10439   0.89561   0.50000   Biso      1.000     Zn          0.768229 