
##########################################################################
#               Crystallographic Information Format file
#               Produced by PyCifRW module
#
#  This is a CIF file.  CIF has been adopted by the International
#  Union of Crystallography as the standard for data archiving and
#  transmission.
#
#  For information on this file format, follow the CIF links at
#  http://www.iucr.org
##########################################################################

data_image0

_cell_length_a                          14.0599
_cell_length_b                          14.0599
_cell_length_c                          14.35
_cell_angle_alpha                       60.9754
_cell_angle_beta                        60.9754
_cell_angle_gamma                       83.8911
_symmetry_space_group_name_H-M          'P 1'
_symmetry_int_tables_number             1
loop_
  _symmetry_equiv_pos_as_xyz
         'x, y, z' 
loop_
  _atom_site_label
  _atom_site_occupancy
  _atom_site_fract_x
  _atom_site_fract_y
  _atom_site_fract_z
  _atom_site_thermal_displace_type
  _atom_site_B_iso_or_equiv
  _atom_site_type_symbol
  _atom_site_charge
         C1        1.0000    0.04760   0.40340   0.82200   Biso      1.000     C          -0.109805           
         C2        1.0000    0.20920   0.01300   0.87430   Biso      1.000     C          0.596991  
         C3        1.0000    0.90090   0.16350   0.23870   Biso      1.000     C          -0.569489           
         C4        1.0000    0.96890   0.08150   0.27720   Biso      1.000     C          0.440368  
         C5        1.0000    0.02860   0.67940   0.58990   Biso      1.000     C          0.610288  
         C6        1.0000    0.98660   0.36920   0.71380   Biso      1.000     C          -0.124329           
         C7        1.0000    0.98710   0.48210   0.64750   Biso      1.000     C          -0.144101           
         C8        1.0000    0.02160   0.55660   0.66660   Biso      1.000     C          -0.084029           
         C9        1.0000    0.05520   0.51780   0.75040   Biso      1.000     C          -0.125043           
         C10       1.0000    0.01540   0.33060   0.80130   Biso      1.000     C          -0.024958           
         C11       1.0000    0.01300   0.20920   0.87430   Biso      1.000     C          0.596988  
         C12       1.0000    0.83650   0.09910   0.76130   Biso      1.000     C          -0.569489           
         C13       1.0000    0.91850   0.03110   0.72280   Biso      1.000     C          0.440368  
         C14       1.0000    0.63080   0.01340   0.28620   Biso      1.000     C          -0.12433  
         C15       1.0000    0.51790   0.01290   0.35250   Biso      1.000     C          -0.144101           
         C16       1.0000    0.44340   0.97840   0.33340   Biso      1.000     C          -0.08403  
         C17       1.0000    0.33060   0.01540   0.80130   Biso      1.000     C          -0.024986           
         C18       1.0000    0.48220   0.94480   0.24960   Biso      1.000     C          -0.125043           
         C19       1.0000    0.40340   0.04760   0.82200   Biso      1.000     C          -0.109794           
         C20       1.0000    0.55660   0.02160   0.66660   Biso      1.000     C          -0.08403  
         C21       1.0000    0.09910   0.83650   0.76130   Biso      1.000     C          -0.569489           
         C22       1.0000    0.03110   0.91850   0.72280   Biso      1.000     C          0.440367  
         C23       1.0000    0.97140   0.32060   0.41010   Biso      1.000     C          0.610287  
         C24       1.0000    0.01340   0.63080   0.28620   Biso      1.000     C          -0.124329           
         C25       1.0000    0.01290   0.51790   0.35250   Biso      1.000     C          -0.144101           
         C26       1.0000    0.97840   0.44340   0.33340   Biso      1.000     C          -0.084029           
         C27       1.0000    0.94480   0.48220   0.24960   Biso      1.000     C          -0.125043           
         C28       1.0000    0.95240   0.59660   0.17800   Biso      1.000     C          -0.109805           
         C29       1.0000    0.98460   0.66940   0.19870   Biso      1.000     C          -0.024958           
         C30       1.0000    0.98700   0.79080   0.12570   Biso      1.000     C          0.596987  
         C31       1.0000    0.16350   0.90090   0.23870   Biso      1.000     C          -0.569489           
         C32       1.0000    0.08150   0.96890   0.27720   Biso      1.000     C          0.440367  
         C33       1.0000    0.67940   0.02860   0.58990   Biso      1.000     C          0.610288  
         C34       1.0000    0.36920   0.98660   0.71380   Biso      1.000     C          -0.12431  
         C35       1.0000    0.48210   0.98710   0.64750   Biso      1.000     C          -0.144102           
         C36       1.0000    0.51780   0.05520   0.75040   Biso      1.000     C          -0.125044           
         C37       1.0000    0.59660   0.95240   0.17800   Biso      1.000     C          -0.109805           
         C38       1.0000    0.32060   0.97140   0.41010   Biso      1.000     C          0.610287  
         C39       1.0000    0.79080   0.98700   0.12570   Biso      1.000     C          0.596988  
         C40       1.0000    0.66940   0.98460   0.19870   Biso      1.000     C          -0.024959           
         H1        1.0000    0.89710   0.16270   0.17410   Biso      1.000     H          0.198689  
         H2        1.0000    0.82790   0.14510   0.30750   Biso      1.000     H          0.179027  
         H3        1.0000    0.93400   0.23580   0.20950   Biso      1.000     H          0.192952  
         H4        1.0000    0.96650   0.32050   0.69750   Biso      1.000     H          0.106669  
         H5        1.0000    0.08330   0.56670   0.76080   Biso      1.000     H          0.112795  
         H6        1.0000    0.06480   0.37700   0.88430   Biso      1.000     H          0.115363  
         H7        1.0000    0.27520   0.06860   0.49280   Biso      1.000     H          0.478637  
         H8        1.0000    0.83730   0.10290   0.82590   Biso      1.000     H          0.198689  
         H9        1.0000    0.85490   0.17210   0.69250   Biso      1.000     H          0.179027  
         H10       1.0000    0.76420   0.06600   0.79050   Biso      1.000     H          0.192952  
         H11       1.0000    0.67950   0.03350   0.30250   Biso      1.000     H          0.10667   
         H12       1.0000    0.49240   0.03620   0.40990   Biso      1.000     H          0.096157  
         H13       1.0000    0.43330   0.91670   0.23920   Biso      1.000     H          0.112795  
         H14       1.0000    0.62300   0.93520   0.11570   Biso      1.000     H          0.115363  
         H15       1.0000    0.93140   0.72480   0.50720   Biso      1.000     H          0.478636  
         H16       1.0000    0.37700   0.06480   0.88430   Biso      1.000     H          0.115363  
         H17       1.0000    0.96380   0.50760   0.59010   Biso      1.000     H          0.096157  
         H18       1.0000    0.50760   0.96380   0.59010   Biso      1.000     H          0.096157  
         H19       1.0000    0.06860   0.27520   0.49280   Biso      1.000     H          0.478637  
         H20       1.0000    0.56670   0.08330   0.76080   Biso      1.000     H          0.112795  
         H21       1.0000    0.17210   0.85490   0.69250   Biso      1.000     H          0.179027  
         H22       1.0000    0.06600   0.76420   0.79050   Biso      1.000     H          0.192952  
         H23       1.0000    0.03350   0.67950   0.30250   Biso      1.000     H          0.106669  
         H24       1.0000    0.03620   0.49240   0.40990   Biso      1.000     H          0.096157  
         H25       1.0000    0.91670   0.43330   0.23920   Biso      1.000     H          0.112795  
         H26       1.0000    0.10290   0.83730   0.82590   Biso      1.000     H          0.198689  
         H27       1.0000    0.72480   0.93140   0.50720   Biso      1.000     H          0.478637  
         H28       1.0000    0.16270   0.89710   0.17410   Biso      1.000     H          0.198689  
         H29       1.0000    0.14510   0.82790   0.30750   Biso      1.000     H          0.179027  
         H30       1.0000    0.23580   0.93400   0.20950   Biso      1.000     H          0.192952  
         H31       1.0000    0.32050   0.96650   0.69750   Biso      1.000     H          0.106668  
         H32       1.0000    0.93520   0.62300   0.11570   Biso      1.000     H          0.115363  
         N1        1.0000    0.94860   0.02280   0.62530   Biso      1.000     N          -0.312768           
         N2        1.0000    0.03020   0.03020   0.21580   Biso      1.000     N          -0.418746           
         N3        1.0000    0.97720   0.05140   0.37470   Biso      1.000     N          -0.312768           
         N4        1.0000    0.05140   0.97720   0.37470   Biso      1.000     N          -0.31276  
         N5        1.0000    0.02280   0.94860   0.62530   Biso      1.000     N          -0.31276  
         N6        1.0000    0.96980   0.96980   0.78420   Biso      1.000     N          -0.418746           
         O1        1.0000    0.98340   0.71100   0.52540   Biso      1.000     O          -0.602752           
         O2        1.0000    0.17860   0.02680   0.96500   Biso      1.000     O          -0.572942           
         O3        1.0000    0.14880   0.99740   0.84200   Biso      1.000     O          -0.568336           
         O4        1.0000    0.74210   0.07210   0.59850   Biso      1.000     O          -0.51086  
         O5        1.0000    0.97320   0.82140   0.03500   Biso      1.000     O          -0.572942           
         O6        1.0000    0.71100   0.98340   0.52540   Biso      1.000     O          -0.602752           
         O7        1.0000    0.07210   0.74210   0.59850   Biso      1.000     O          -0.51086  
         O8        1.0000    0.00260   0.85120   0.15800   Biso      1.000     O          -0.568336           
         O9        1.0000    0.99740   0.14880   0.84200   Biso      1.000     O          -0.568336           
         O10       1.0000    0.01660   0.28900   0.47460   Biso      1.000     O          -0.602752           
         O11       1.0000    0.28900   0.01660   0.47460   Biso      1.000     O          -0.602752           
         O12       1.0000    0.25790   0.92790   0.40150   Biso      1.000     O          -0.510859           
         O13       1.0000    0.85120   0.00260   0.15800   Biso      1.000     O          -0.568336           
         O14       1.0000    0.82140   0.97320   0.03500   Biso      1.000     O          -0.572942           
         O15       1.0000    0.92790   0.25790   0.40150   Biso      1.000     O          -0.51086  
         O16       1.0000    0.02680   0.17860   0.96500   Biso      1.000     O          -0.572942           
         Zn1       1.0000    0.09951   0.90049   0.50000   Biso      1.000     Zn          0.781591  
         Zn2       1.0000    0.90049   0.09951   0.50000   Biso      1.000     Zn          0.781593  
         Zn3       1.0000    0.01975   0.01975   0.08429   Biso      1.000     Zn          0.880105  
         Zn4       1.0000    0.98025   0.98025   0.91571   Biso      1.000     Zn          0.880106 