
##########################################################################
#               Crystallographic Information Format file
#               Produced by PyCifRW module
#
#  This is a CIF file.  CIF has been adopted by the International
#  Union of Crystallography as the standard for data archiving and
#  transmission.
#
#  For information on this file format, follow the CIF links at
#  http://www.iucr.org
##########################################################################

data_image0

_cell_length_a                          12.3397
_cell_length_b                          15.505
_cell_length_c                          18.9437
_cell_angle_alpha                       90
_cell_angle_beta                        90
_cell_angle_gamma                       90
_symmetry_space_group_name_H-M          'P 1'
_symmetry_int_tables_number             1
loop_
  _symmetry_equiv_pos_as_xyz
         'x, y, z' 
loop_
  _atom_site_label
  _atom_site_occupancy
  _atom_site_fract_x
  _atom_site_fract_y
  _atom_site_fract_z
  _atom_site_thermal_displace_type
  _atom_site_B_iso_or_equiv
  _atom_site_type_symbol
  _atom_site_charge
         C1        1.0000    0.96936   0.34643   0.73208   Biso      1.000     C          0.076528  
         C2        1.0000    0.99949   0.49756   0.74509   Biso      1.000     C          0.032731  
         C3        1.0000    0.02584   0.41984   0.71317   Biso      1.000     C          -0.160226           
         C4        1.0000    0.99949   0.00244   0.24509   Biso      1.000     C          0.03273   
         C5        1.0000    0.06133   0.57856   0.72583   Biso      1.000     C          0.555256  
         C6        1.0000    0.93867   0.42144   0.27417   Biso      1.000     C          0.555256  
         C7        1.0000    0.03064   0.65357   0.26792   Biso      1.000     C          0.076528  
         C8        1.0000    0.91608   0.49871   0.79369   Biso      1.000     C          -0.141428           
         C9        1.0000    0.97416   0.58016   0.28683   Biso      1.000     C          -0.160228           
         C10       1.0000    0.08392   0.50129   0.20631   Biso      1.000     C          -0.141428           
         C11       1.0000    0.13670   0.57798   0.19072   Biso      1.000     C          0.085718  
         C12       1.0000    0.63670   0.92202   0.80928   Biso      1.000     C          0.085717  
         C13       1.0000    0.58392   0.99871   0.79369   Biso      1.000     C          -0.141427           
         C14       1.0000    0.50051   0.99756   0.74509   Biso      1.000     C          0.032731  
         C15       1.0000    0.47416   0.91984   0.71317   Biso      1.000     C          -0.160228           
         C16       1.0000    0.00051   0.50244   0.25491   Biso      1.000     C          0.032733  
         C17       1.0000    0.53064   0.84643   0.73208   Biso      1.000     C          0.076531  
         C18       1.0000    0.86330   0.42202   0.80928   Biso      1.000     C          0.085718  
         C19       1.0000    0.99217   0.16433   0.93742   Biso      1.000     C          0.088014  
         C20       1.0000    0.94614   0.73895   0.46064   Biso      1.000     C          0.043534  
         C21       1.0000    0.93735   0.67084   0.50640   Biso      1.000     C          -0.165441           
         C22       1.0000    0.00783   0.66433   0.56258   Biso      1.000     C          0.088016  
         C23       1.0000    0.86222   0.75286   0.40394   Biso      1.000     C          0.551172  
         C24       1.0000    0.13670   0.92202   0.69072   Biso      1.000     C          0.085717  
         C25       1.0000    0.08392   0.99871   0.70631   Biso      1.000     C          -0.141427           
         C26       1.0000    0.13778   0.25286   0.09606   Biso      1.000     C          0.551172  
         C27       1.0000    0.00051   0.99756   0.75491   Biso      1.000     C          0.032731  
         C28       1.0000    0.03064   0.84643   0.76792   Biso      1.000     C          0.076528  
         C29       1.0000    0.93867   0.07856   0.77417   Biso      1.000     C          0.555256  
         C30       1.0000    0.90185   0.28419   0.97191   Biso      1.000     C          0.077676  
         C31       1.0000    0.97017   0.29608   0.02890   Biso      1.000     C          -0.157367           
         C32       1.0000    0.05386   0.23895   0.03936   Biso      1.000     C          0.043537  
         C33       1.0000    0.06265   0.17084   0.99360   Biso      1.000     C          -0.165439           
         C34       1.0000    0.97416   0.91984   0.78683   Biso      1.000     C          -0.160226           
         C35       1.0000    0.02983   0.79608   0.47110   Biso      1.000     C          -0.157363           
         C36       1.0000    0.43867   0.07856   0.72583   Biso      1.000     C          0.555256  
         C37       1.0000    0.52983   0.79608   0.02890   Biso      1.000     C          -0.157368           
         C38       1.0000    0.93735   0.82916   0.00640   Biso      1.000     C          -0.16545  
         C39       1.0000    0.94614   0.76105   0.96064   Biso      1.000     C          0.043542  
         C40       1.0000    0.02983   0.70392   0.97110   Biso      1.000     C          -0.157364           
         C41       1.0000    0.09815   0.71581   0.02809   Biso      1.000     C          0.077677  
         C42       1.0000    0.06133   0.92144   0.22583   Biso      1.000     C          0.555256  
         C43       1.0000    0.96936   0.15357   0.23208   Biso      1.000     C          0.076528  
         C44       1.0000    0.00783   0.83567   0.06258   Biso      1.000     C          0.088017  
         C45       1.0000    0.90185   0.21581   0.47191   Biso      1.000     C          0.077676  
         C46       1.0000    0.05386   0.26105   0.53936   Biso      1.000     C          0.043534  
         C47       1.0000    0.06265   0.32916   0.49360   Biso      1.000     C          -0.165441           
         C48       1.0000    0.99217   0.33567   0.43742   Biso      1.000     C          0.088016  
         C49       1.0000    0.13778   0.24714   0.59606   Biso      1.000     C          0.551172  
         C50       1.0000    0.86330   0.07798   0.30928   Biso      1.000     C          0.085717  
         C51       1.0000    0.91608   0.00129   0.29369   Biso      1.000     C          -0.141426           
         C52       1.0000    0.97017   0.20392   0.52890   Biso      1.000     C          -0.157362           
         C53       1.0000    0.59815   0.78419   0.97191   Biso      1.000     C          0.077677  
         C54       1.0000    0.86222   0.74714   0.90394   Biso      1.000     C          0.551171  
         C55       1.0000    0.49217   0.16433   0.56258   Biso      1.000     C          0.088014  
         C56       1.0000    0.44614   0.73895   0.03936   Biso      1.000     C          0.043538  
         C57       1.0000    0.43735   0.67084   0.99360   Biso      1.000     C          -0.165441           
         C58       1.0000    0.50783   0.66433   0.93742   Biso      1.000     C          0.088016  
         C59       1.0000    0.36222   0.75286   0.09606   Biso      1.000     C          0.551172  
         C60       1.0000    0.36330   0.42202   0.69072   Biso      1.000     C          0.085717  
         C61       1.0000    0.41608   0.49871   0.70631   Biso      1.000     C          -0.141427           
         C62       1.0000    0.63778   0.25286   0.40394   Biso      1.000     C          0.551172  
         C63       1.0000    0.49949   0.49756   0.75491   Biso      1.000     C          0.032731  
         C64       1.0000    0.46936   0.34643   0.76792   Biso      1.000     C          0.076528  
         C65       1.0000    0.56133   0.57856   0.77417   Biso      1.000     C          0.555256  
         C66       1.0000    0.40185   0.28419   0.52809   Biso      1.000     C          0.077676  
         C67       1.0000    0.47017   0.29608   0.47110   Biso      1.000     C          -0.157367           
         C68       1.0000    0.55386   0.23895   0.46064   Biso      1.000     C          0.043537  
         C69       1.0000    0.56265   0.17084   0.50640   Biso      1.000     C          -0.165439           
         C70       1.0000    0.52584   0.41984   0.78683   Biso      1.000     C          -0.160226           
         C71       1.0000    0.09815   0.78419   0.52809   Biso      1.000     C          0.077677  
         C72       1.0000    0.02584   0.08016   0.21317   Biso      1.000     C          -0.160226           
         C73       1.0000    0.59815   0.71581   0.47191   Biso      1.000     C          0.077676  
         C74       1.0000    0.50783   0.83567   0.43742   Biso      1.000     C          0.088016  
         C75       1.0000    0.43735   0.82916   0.49360   Biso      1.000     C          -0.165448           
         C76       1.0000    0.44614   0.76105   0.53936   Biso      1.000     C          0.043542  
         C77       1.0000    0.52983   0.70392   0.52890   Biso      1.000     C          -0.157363           
         C78       1.0000    0.43867   0.42144   0.22583   Biso      1.000     C          0.555256  
         C79       1.0000    0.53064   0.65357   0.23208   Biso      1.000     C          0.076528  
         C80       1.0000    0.47416   0.58016   0.21317   Biso      1.000     C          -0.160228           
         C81       1.0000    0.50051   0.50244   0.24509   Biso      1.000     C          0.032733  
         C82       1.0000    0.58392   0.50129   0.29369   Biso      1.000     C          -0.141428           
         C83       1.0000    0.63670   0.57798   0.30928   Biso      1.000     C          0.085718  
         C84       1.0000    0.63778   0.24714   0.90394   Biso      1.000     C          0.551171  
         C85       1.0000    0.56265   0.32916   0.00640   Biso      1.000     C          -0.16545  
         C86       1.0000    0.49217   0.33567   0.06258   Biso      1.000     C          0.088017  
         C87       1.0000    0.47017   0.20392   0.97110   Biso      1.000     C          -0.157369           
         C88       1.0000    0.40185   0.21581   0.02809   Biso      1.000     C          0.077678  
         C89       1.0000    0.56133   0.92144   0.27417   Biso      1.000     C          0.555256  
         C90       1.0000    0.46936   0.15357   0.26792   Biso      1.000     C          0.076528  
         C91       1.0000    0.52584   0.08016   0.28683   Biso      1.000     C          -0.160228           
         C92       1.0000    0.49949   0.00244   0.25491   Biso      1.000     C          0.032733  
         C93       1.0000    0.41608   0.00129   0.20631   Biso      1.000     C          -0.141428           
         C94       1.0000    0.36330   0.07798   0.19072   Biso      1.000     C          0.085718  
         C95       1.0000    0.55386   0.26105   0.96064   Biso      1.000     C          0.043546  
         C96       1.0000    0.36222   0.74714   0.59606   Biso      1.000     C          0.551171  
         Cd1       1.0000    0.31134   0.21600   0.68218   Biso      1.000     Cd          0.824816  
         Cd2       1.0000    0.18866   0.78400   0.18218   Biso      1.000     Cd          0.824816  
         Cd3       1.0000    0.81134   0.28400   0.31782   Biso      1.000     Cd          0.824816  
         Cd4       1.0000    0.31134   0.28400   0.18218   Biso      1.000     Cd          0.824816  
         Cd5       1.0000    0.68866   0.71600   0.81782   Biso      1.000     Cd          0.824816  
         Cd6       1.0000    0.68866   0.78400   0.31782   Biso      1.000     Cd          0.824816  
         Cd7       1.0000    0.18866   0.71600   0.68218   Biso      1.000     Cd          0.824816  
         Cd8       1.0000    0.81134   0.21600   0.81782   Biso      1.000     Cd          0.824816  
         H1        1.0000    0.01210   0.79450   0.78940   Biso      1.000     H          0.09702   
         H2        1.0000    0.95970   0.15800   0.55970   Biso      1.000     H          0.137729  
         H3        1.0000    0.84510   0.17710   0.46570   Biso      1.000     H          0.092914  
         H4        1.0000    0.80700   0.42320   0.84190   Biso      1.000     H          0.104983  
         H5        1.0000    0.00060   0.11840   0.90630   Biso      1.000     H          0.091875  
         H6        1.0000    0.50060   0.38160   0.09370   Biso      1.000     H          0.091874  
         H7        1.0000    0.69300   0.57680   0.34190   Biso      1.000     H          0.104983  
         H8        1.0000    0.60430   0.45010   0.31560   Biso      1.000     H          0.14113   
         H9        1.0000    0.51210   0.70550   0.21060   Biso      1.000     H          0.09702   
         H10       1.0000    0.11590   0.37080   0.50040   Biso      1.000     H          0.133595  
         H11       1.0000    0.65490   0.67710   0.46570   Biso      1.000     H          0.092914  
         H12       1.0000    0.54030   0.65800   0.55970   Biso      1.000     H          0.137729  
         H13       1.0000    0.38410   0.87080   0.50040   Biso      1.000     H          0.133595  
         H14       1.0000    0.49940   0.88160   0.40630   Biso      1.000     H          0.091875  
         H15       1.0000    0.11590   0.12920   0.00040   Biso      1.000     H          0.133595  
         H16       1.0000    0.95970   0.34200   0.05970   Biso      1.000     H          0.13773   
         H17       1.0000    0.41930   0.58280   0.17960   Biso      1.000     H          0.132382  
         H18       1.0000    0.00060   0.38160   0.40630   Biso      1.000     H          0.091875  
         H19       1.0000    0.80700   0.07680   0.34190   Biso      1.000     H          0.104983  
         H20       1.0000    0.89570   0.95010   0.31560   Biso      1.000     H          0.14113   
         H21       1.0000    0.89570   0.54990   0.81560   Biso      1.000     H          0.14113   
         H22       1.0000    0.30700   0.07680   0.15810   Biso      1.000     H          0.104983  
         H23       1.0000    0.39570   0.95010   0.18440   Biso      1.000     H          0.14113   
         H24       1.0000    0.58070   0.08280   0.32040   Biso      1.000     H          0.132382  
         H25       1.0000    0.48790   0.20550   0.28940   Biso      1.000     H          0.09702   
         H26       1.0000    0.34510   0.17710   0.03430   Biso      1.000     H          0.092914  
         H27       1.0000    0.45970   0.15800   0.94030   Biso      1.000     H          0.13773   
         H28       1.0000    0.61590   0.37080   0.99960   Biso      1.000     H          0.133596  
         H29       1.0000    0.84510   0.32290   0.96570   Biso      1.000     H          0.092914  
         H30       1.0000    0.01210   0.70550   0.28940   Biso      1.000     H          0.09702   
         H31       1.0000    0.10430   0.45010   0.18440   Biso      1.000     H          0.14113   
         H32       1.0000    0.19300   0.57680   0.15810   Biso      1.000     H          0.104983  
         H33       1.0000    0.99940   0.88160   0.09370   Biso      1.000     H          0.091874  
         H34       1.0000    0.88410   0.87080   0.99960   Biso      1.000     H          0.133595  
         H35       1.0000    0.04030   0.65800   0.94030   Biso      1.000     H          0.137729  
         H36       1.0000    0.15490   0.67710   0.03430   Biso      1.000     H          0.092914  
         H37       1.0000    0.98790   0.20550   0.21060   Biso      1.000     H          0.09702   
         H38       1.0000    0.08070   0.08280   0.17960   Biso      1.000     H          0.132382  
         H39       1.0000    0.91930   0.58280   0.32040   Biso      1.000     H          0.132382  
         H40       1.0000    0.91930   0.91720   0.82040   Biso      1.000     H          0.132382  
         H41       1.0000    0.08070   0.41720   0.67960   Biso      1.000     H          0.132382  
         H42       1.0000    0.45970   0.34200   0.44030   Biso      1.000     H          0.13773   
         H43       1.0000    0.30700   0.42320   0.65810   Biso      1.000     H          0.104983  
         H44       1.0000    0.39570   0.54990   0.68440   Biso      1.000     H          0.14113   
         H45       1.0000    0.58070   0.41720   0.82040   Biso      1.000     H          0.132382  
         H46       1.0000    0.48790   0.29450   0.78940   Biso      1.000     H          0.09702   
         H47       1.0000    0.34510   0.32290   0.53430   Biso      1.000     H          0.092914  
         H48       1.0000    0.10430   0.04990   0.68440   Biso      1.000     H          0.14113   
         H49       1.0000    0.61590   0.12920   0.49960   Biso      1.000     H          0.133594  
         H50       1.0000    0.50060   0.11840   0.59370   Biso      1.000     H          0.091875  
         H51       1.0000    0.54030   0.84200   0.05970   Biso      1.000     H          0.13773   
         H52       1.0000    0.65490   0.82290   0.96570   Biso      1.000     H          0.092914  
         H53       1.0000    0.51210   0.79450   0.71060   Biso      1.000     H          0.09702   
         H54       1.0000    0.41930   0.91720   0.67960   Biso      1.000     H          0.132382  
         H55       1.0000    0.98790   0.29450   0.71060   Biso      1.000     H          0.09702   
         H56       1.0000    0.60430   0.04990   0.81560   Biso      1.000     H          0.14113   
         H57       1.0000    0.69300   0.92320   0.84190   Biso      1.000     H          0.104983  
         H58       1.0000    0.15490   0.82290   0.53430   Biso      1.000     H          0.092914  
         H59       1.0000    0.04030   0.84200   0.44030   Biso      1.000     H          0.137729  
         H60       1.0000    0.88410   0.62920   0.49960   Biso      1.000     H          0.133594  
         H61       1.0000    0.99940   0.61840   0.59370   Biso      1.000     H          0.091875  
         H62       1.0000    0.19300   0.92320   0.65810   Biso      1.000     H          0.104983  
         H63       1.0000    0.49940   0.61840   0.90630   Biso      1.000     H          0.091875  
         H64       1.0000    0.38410   0.62920   0.00040   Biso      1.000     H          0.133595  
         N1        1.0000    0.91285   0.22042   0.92551   Biso      1.000     N          -0.221438           
         N2        1.0000    0.88933   0.34626   0.77966   Biso      1.000     N          -0.233414           
         N3        1.0000    0.88933   0.15374   0.27966   Biso      1.000     N          -0.233414           
         N4        1.0000    0.38933   0.15374   0.22034   Biso      1.000     N          -0.233414           
         N5        1.0000    0.41285   0.27958   0.07449   Biso      1.000     N          -0.221438           
         N6        1.0000    0.61067   0.65374   0.27966   Biso      1.000     N          -0.233414           
         N7        1.0000    0.58715   0.77958   0.42551   Biso      1.000     N          -0.221438           
         N8        1.0000    0.91285   0.27958   0.42551   Biso      1.000     N          -0.221438           
         N9        1.0000    0.08715   0.72042   0.57449   Biso      1.000     N          -0.221438           
         N10       1.0000    0.11067   0.65374   0.22034   Biso      1.000     N          -0.233414           
         N11       1.0000    0.08715   0.77958   0.07449   Biso      1.000     N          -0.221438           
         N12       1.0000    0.41285   0.22042   0.57449   Biso      1.000     N          -0.221438           
         N13       1.0000    0.38933   0.34626   0.72034   Biso      1.000     N          -0.233414           
         N14       1.0000    0.58715   0.72042   0.92551   Biso      1.000     N          -0.221438           
         N15       1.0000    0.61067   0.84626   0.77966   Biso      1.000     N          -0.233415           
         N16       1.0000    0.11067   0.84626   0.72034   Biso      1.000     N          -0.233414           
         O1        1.0000    0.84578   0.67189   0.88337   Biso      1.000     O          -0.527486           
         O2        1.0000    0.14893   0.93015   0.19414   Biso      1.000     O          -0.532007           
         O3        1.0000    0.02159   0.84993   0.24117   Biso      1.000     O          -0.570744           
         O4        1.0000    0.19024   0.31116   0.61708   Biso      1.000     O          -0.557528           
         O5        1.0000    0.15422   0.17189   0.61663   Biso      1.000     O          -0.527486           
         O6        1.0000    0.80976   0.81116   0.88292   Biso      1.000     O          -0.557528           
         O7        1.0000    0.14893   0.56985   0.69414   Biso      1.000     O          -0.532007           
         O8        1.0000    0.65422   0.32811   0.38337   Biso      1.000     O          -0.527486           
         O9        1.0000    0.52159   0.84993   0.25883   Biso      1.000     O          -0.570744           
         O10       1.0000    0.64893   0.93015   0.30586   Biso      1.000     O          -0.532007           
         O11       1.0000    0.65422   0.17189   0.88337   Biso      1.000     O          -0.527486           
         O12       1.0000    0.69024   0.31116   0.88292   Biso      1.000     O          -0.557528           
         O13       1.0000    0.47841   0.34993   0.24117   Biso      1.000     O          -0.570744           
         O14       1.0000    0.35107   0.43015   0.19414   Biso      1.000     O          -0.532007           
         O15       1.0000    0.34578   0.67189   0.61663   Biso      1.000     O          -0.527486           
         O16       1.0000    0.30976   0.81116   0.61708   Biso      1.000     O          -0.557528           
         O17       1.0000    0.84578   0.82811   0.38337   Biso      1.000     O          -0.527486           
         O18       1.0000    0.80976   0.68884   0.38292   Biso      1.000     O          -0.557528           
         O19       1.0000    0.69024   0.18884   0.38292   Biso      1.000     O          -0.557528           
         O20       1.0000    0.97841   0.15007   0.75883   Biso      1.000     O          -0.570744           
         O21       1.0000    0.15422   0.32811   0.11663   Biso      1.000     O          -0.527486           
         O22       1.0000    0.19024   0.18884   0.11708   Biso      1.000     O          -0.557528           
         O23       1.0000    0.02159   0.65007   0.74117   Biso      1.000     O          -0.570744           
         O24       1.0000    0.97841   0.34993   0.25883   Biso      1.000     O          -0.570744           
         O25       1.0000    0.47841   0.15007   0.74117   Biso      1.000     O          -0.570744           
         O26       1.0000    0.35107   0.06985   0.69414   Biso      1.000     O          -0.532007           
         O27       1.0000    0.34578   0.82811   0.11663   Biso      1.000     O          -0.527486           
         O28       1.0000    0.30976   0.68884   0.11708   Biso      1.000     O          -0.557528           
         O29       1.0000    0.52159   0.65007   0.75883   Biso      1.000     O          -0.570744           
         O30       1.0000    0.64893   0.56985   0.80586   Biso      1.000     O          -0.532007           
         O31       1.0000    0.85107   0.06985   0.80586   Biso      1.000     O          -0.532007           
         O32       1.0000    0.85107   0.43015   0.30586   Biso      1.000     O          -0.532007 