
##########################################################################
#               Crystallographic Information Format file
#               Produced by PyCifRW module
#
#  This is a CIF file.  CIF has been adopted by the International
#  Union of Crystallography as the standard for data archiving and
#  transmission.
#
#  For information on this file format, follow the CIF links at
#  http://www.iucr.org
##########################################################################

data_image0

_cell_length_a                          12.656
_cell_length_b                          9.2408
_cell_length_c                          25.544
_cell_angle_alpha                       90
_cell_angle_beta                        96.158
_cell_angle_gamma                       90
_symmetry_space_group_name_H-M          'P 1'
_symmetry_int_tables_number             1
loop_
  _symmetry_equiv_pos_as_xyz
         'x, y, z' 
loop_
  _atom_site_label
  _atom_site_occupancy
  _atom_site_fract_x
  _atom_site_fract_y
  _atom_site_fract_z
  _atom_site_thermal_displace_type
  _atom_site_B_iso_or_equiv
  _atom_site_type_symbol
  _atom_site_charge
         C1        1.0000    0.88150   0.06130   0.41720   Biso      1.000     C          0.572865  
         C2        1.0000    0.27860   0.89820   0.38680   Biso      1.000     C          -0.084871           
         C3        1.0000    0.12240   0.60760   0.93930   Biso      1.000     C          0.579583  
         C4        1.0000    0.33440   0.84650   0.34830   Biso      1.000     C          -0.188616           
         C5        1.0000    0.88230   0.92940   0.96760   Biso      1.000     C          0.090935  
         C6        1.0000    0.20650   0.65720   0.33260   Biso      1.000     C          -0.194161           
         C7        1.0000    0.29790   0.72280   0.32080   Biso      1.000     C          0.200932  
         C8        1.0000    0.46280   0.63540   0.29110   Biso      1.000     C          0.206628  
         C9        1.0000    0.83080   0.05030   0.95510   Biso      1.000     C          -0.177467           
         C10       1.0000    0.50060   0.58700   0.33950   Biso      1.000     C          -0.206165           
         C11       1.0000    0.77870   0.84730   0.02700   Biso      1.000     C          0.095766  
         C12       1.0000    0.53090   0.65460   0.25430   Biso      1.000     C          -0.201556           
         C13       1.0000    0.71510   0.98750   0.01840   Biso      1.000     C          -0.23114  
         C14       1.0000    0.60660   0.55500   0.35220   Biso      1.000     C          -0.07231  
         C15       1.0000    0.75200   0.07760   0.98230   Biso      1.000     C          0.145872  
         C16       1.0000    0.64020   0.62730   0.26650   Biso      1.000     C          -0.080294           
         C17       1.0000    0.69000   0.22790   0.97150   Biso      1.000     C          -0.083849           
         C18       1.0000    0.67590   0.57400   0.31610   Biso      1.000     C          -0.112737           
         C19       1.0000    0.29920   0.64190   0.23050   Biso      1.000     C          0.209756  
         C20       1.0000    0.55630   0.37300   0.99730   Biso      1.000     C          0.236612  
         C21       1.0000    0.21670   0.73230   0.21160   Biso      1.000     C          -0.202444           
         C22       1.0000    0.58760   0.49450   0.97340   Biso      1.000     C          -0.210436           
         C23       1.0000    0.32160   0.52360   0.20010   Biso      1.000     C          -0.204888           
         C24       1.0000    0.46860   0.37740   0.02380   Biso      1.000     C          -0.186073           
         C25       1.0000    0.15960   0.70660   0.16430   Biso      1.000     C          -0.096071           
         C26       1.0000    0.26320   0.49830   0.15290   Biso      1.000     C          -0.087529           
         C27       1.0000    0.18620   0.66960   0.89920   Biso      1.000     C          -0.025698           
         C28       1.0000    0.18270   0.58960   0.13360   Biso      1.000     C          -0.046912           
         C29       1.0000    0.15030   0.71010   0.37150   Biso      1.000     C          -0.087264           
         C30       1.0000    0.18620   0.83040   0.39920   Biso      1.000     C          -0.028092           
         C31       1.0000    0.26320   0.00170   0.65290   Biso      1.000     C          -0.087781           
         C32       1.0000    0.15960   0.79340   0.66430   Biso      1.000     C          -0.096071           
         C33       1.0000    0.32160   0.97640   0.70010   Biso      1.000     C          -0.204248           
         C34       1.0000    0.21670   0.76770   0.71160   Biso      1.000     C          -0.20134  
         C35       1.0000    0.29920   0.85810   0.73050   Biso      1.000     C          0.211813  
         C36       1.0000    0.67590   0.92600   0.81610   Biso      1.000     C          -0.111738           
         C37       1.0000    0.64020   0.87270   0.76650   Biso      1.000     C          -0.081279           
         C38       1.0000    0.60660   0.94500   0.85220   Biso      1.000     C          -0.070709           
         C39       1.0000    0.46860   0.12260   0.52380   Biso      1.000     C          -0.185873           
         C40       1.0000    0.53090   0.84540   0.75430   Biso      1.000     C          -0.203018           
         C41       1.0000    0.58760   0.00550   0.47340   Biso      1.000     C          -0.210294           
         C42       1.0000    0.55630   0.12700   0.49730   Biso      1.000     C          0.236796  
         C43       1.0000    0.50060   0.91300   0.83950   Biso      1.000     C          -0.204885           
         C44       1.0000    0.46280   0.86460   0.79110   Biso      1.000     C          0.206265  
         C45       1.0000    0.69000   0.27210   0.47150   Biso      1.000     C          -0.083905           
         C46       1.0000    0.75200   0.42240   0.48230   Biso      1.000     C          0.146073  
         C47       1.0000    0.29790   0.77720   0.82080   Biso      1.000     C          0.198753  
         C48       1.0000    0.71510   0.51250   0.51840   Biso      1.000     C          -0.229733           
         C49       1.0000    0.20650   0.84280   0.83260   Biso      1.000     C          -0.194804           
         C50       1.0000    0.77870   0.65270   0.52700   Biso      1.000     C          0.096436  
         C51       1.0000    0.33440   0.65350   0.84830   Biso      1.000     C          -0.189387           
         C52       1.0000    0.83080   0.44970   0.45510   Biso      1.000     C          -0.176948           
         C53       1.0000    0.27860   0.60180   0.88680   Biso      1.000     C          -0.084672           
         C54       1.0000    0.88230   0.57060   0.46760   Biso      1.000     C          0.090767  
         C55       1.0000    0.12240   0.89240   0.43930   Biso      1.000     C          0.580628  
         C56       1.0000    0.15030   0.78990   0.87150   Biso      1.000     C          -0.087361           
         C57       1.0000    0.18270   0.91040   0.63360   Biso      1.000     C          -0.049974           
         C58       1.0000    0.11850   0.56130   0.08280   Biso      1.000     C          0.571969  
         C59       1.0000    0.81730   0.41040   0.86640   Biso      1.000     C          -0.046977           
         C60       1.0000    0.81380   0.16960   0.60080   Biso      1.000     C          -0.028025           
         C61       1.0000    0.66560   0.34650   0.15170   Biso      1.000     C          -0.189369           
         C62       1.0000    0.87760   0.10760   0.56070   Biso      1.000     C          0.580679  
         C63       1.0000    0.79350   0.15720   0.16740   Biso      1.000     C          -0.194827           
         C64       1.0000    0.70210   0.22280   0.17920   Biso      1.000     C          0.198783  
         C65       1.0000    0.53720   0.13540   0.20890   Biso      1.000     C          0.206233  
         C66       1.0000    0.11770   0.42940   0.53240   Biso      1.000     C          0.090823  
         C67       1.0000    0.49940   0.08700   0.16050   Biso      1.000     C          -0.204898           
         C68       1.0000    0.16920   0.55030   0.54490   Biso      1.000     C          -0.176557           
         C69       1.0000    0.46910   0.15460   0.24570   Biso      1.000     C          -0.20301  
         C70       1.0000    0.22130   0.34730   0.47300   Biso      1.000     C          0.09657   
         C71       1.0000    0.39340   0.05500   0.14780   Biso      1.000     C          -0.070657           
         C72       1.0000    0.72140   0.39820   0.11320   Biso      1.000     C          -0.084677           
         C73       1.0000    0.28490   0.48750   0.48160   Biso      1.000     C          -0.229516           
         C74       1.0000    0.24800   0.57760   0.51770   Biso      1.000     C          0.146259  
         C75       1.0000    0.32410   0.07400   0.18390   Biso      1.000     C          -0.111664           
         C76       1.0000    0.70080   0.14190   0.26950   Biso      1.000     C          0.211789  
         C77       1.0000    0.31000   0.72790   0.52850   Biso      1.000     C          -0.083905           
         C78       1.0000    0.78330   0.23230   0.28840   Biso      1.000     C          -0.201337           
         C79       1.0000    0.44370   0.87300   0.50270   Biso      1.000     C          0.236763  
         C80       1.0000    0.67840   0.02360   0.29990   Biso      1.000     C          -0.204292           
         C81       1.0000    0.41240   0.99450   0.52660   Biso      1.000     C          -0.210462           
         C82       1.0000    0.84040   0.20660   0.33570   Biso      1.000     C          -0.096246           
         C83       1.0000    0.53140   0.87740   0.47620   Biso      1.000     C          -0.185791           
         C84       1.0000    0.73680   0.99830   0.34710   Biso      1.000     C          -0.087579           
         C85       1.0000    0.81730   0.08960   0.36640   Biso      1.000     C          -0.049936           
         C86       1.0000    0.35980   0.12730   0.23350   Biso      1.000     C          -0.081293           
         C87       1.0000    0.88150   0.43870   0.91720   Biso      1.000     C          0.571962  
         C88       1.0000    0.84970   0.28990   0.62850   Biso      1.000     C          -0.087425           
         C89       1.0000    0.72140   0.10180   0.61320   Biso      1.000     C          -0.084676           
         C90       1.0000    0.73680   0.50170   0.84710   Biso      1.000     C          -0.087531           
         C91       1.0000    0.84040   0.29340   0.83570   Biso      1.000     C          -0.096088           
         C92       1.0000    0.67840   0.47640   0.79990   Biso      1.000     C          -0.204875           
         C93       1.0000    0.78330   0.26770   0.78840   Biso      1.000     C          -0.202415           
         C94       1.0000    0.70080   0.35810   0.76950   Biso      1.000     C          0.209786  
         C95       1.0000    0.32410   0.42600   0.68390   Biso      1.000     C          -0.112811           
         C96       1.0000    0.35980   0.37270   0.73350   Biso      1.000     C          -0.080259           
         C97       1.0000    0.53140   0.62260   0.97620   Biso      1.000     C          -0.186161           
         C98       1.0000    0.39340   0.44500   0.64780   Biso      1.000     C          -0.072345           
         C99       1.0000    0.41240   0.50550   0.02660   Biso      1.000     C          -0.210361           
         C100      1.0000    0.44370   0.62700   0.00270   Biso      1.000     C          0.236647  
         C101      1.0000    0.84970   0.21010   0.12850   Biso      1.000     C          -0.087408           
         C102      1.0000    0.46910   0.34540   0.74570   Biso      1.000     C          -0.201562           
         C103      1.0000    0.31000   0.77210   0.02850   Biso      1.000     C          -0.083847           
         C104      1.0000    0.24800   0.92240   0.01770   Biso      1.000     C          0.145687  
         C105      1.0000    0.53720   0.36460   0.70890   Biso      1.000     C          0.206665  
         C106      1.0000    0.28490   0.01250   0.98160   Biso      1.000     C          -0.231454           
         C107      1.0000    0.70210   0.27720   0.67920   Biso      1.000     C          0.200902  
         C108      1.0000    0.22130   0.15270   0.97300   Biso      1.000     C          0.095584  
         C109      1.0000    0.79350   0.34280   0.66740   Biso      1.000     C          -0.194125           
         C110      1.0000    0.16920   0.94970   0.04490   Biso      1.000     C          -0.177834           
         C111      1.0000    0.66560   0.15350   0.65170   Biso      1.000     C          -0.188679           
         C112      1.0000    0.11770   0.07060   0.03240   Biso      1.000     C          0.090814  
         C113      1.0000    0.87760   0.39240   0.06070   Biso      1.000     C          0.579561  
         C114      1.0000    0.81380   0.33040   0.10080   Biso      1.000     C          -0.025731           
         C115      1.0000    0.49940   0.41300   0.66050   Biso      1.000     C          -0.206145           
         C116      1.0000    0.11850   0.93870   0.58280   Biso      1.000     C          0.572813  
         Cu1       1.0000    0.94845   0.62555   0.00305   Biso      1.000     Cu          0.804645  
         Cu2       1.0000    0.94845   0.87445   0.50305   Biso      1.000     Cu          0.806989  
         Cu3       1.0000    0.05155   0.37445   0.99695   Biso      1.000     Cu          0.799346  
         Cu4       1.0000    0.05155   0.12555   0.49695   Biso      1.000     Cu          0.813284  
         H1        1.0000    0.80000   0.31180   0.26860   Biso      1.000     H          0.121327  
         H2        1.0000    0.55370   0.70560   0.95990   Biso      1.000     H          0.128631  
         H3        1.0000    0.25260   0.44880   0.67560   Biso      1.000     H          0.1025    
         H4        1.0000    0.80000   0.18820   0.76860   Biso      1.000     H          0.120615  
         H5        1.0000    0.33290   0.73650   0.56590   Biso      1.000     H          0.081968  
         H6        1.0000    0.62340   0.53890   0.78800   Biso      1.000     H          0.118598  
         H7        1.0000    0.26200   0.80740   0.51860   Biso      1.000     H          0.088641  
         H8        1.0000    0.89570   0.23150   0.84760   Biso      1.000     H          0.117408  
         H9        1.0000    0.62340   0.96110   0.28800   Biso      1.000     H          0.119026  
         H10       1.0000    0.72170   0.58250   0.86670   Biso      1.000     H          0.116226  
         H11       1.0000    0.89570   0.26850   0.34760   Biso      1.000     H          0.117126  
         H12       1.0000    0.27830   0.08250   0.63330   Biso      1.000     H          0.11588   
         H13       1.0000    0.35290   0.99180   0.54500   Biso      1.000     H          0.124524  
         H14       1.0000    0.27830   0.41750   0.13330   Biso      1.000     H          0.116239  
         H15       1.0000    0.72170   0.91750   0.36670   Biso      1.000     H          0.115922  
         H16       1.0000    0.55370   0.79440   0.45990   Biso      1.000     H          0.128801  
         H17       1.0000    0.25260   0.05120   0.17560   Biso      1.000     H          0.103009  
         H18       1.0000    0.15060   0.61180   0.57130   Biso      1.000     H          0.135622  
         H19       1.0000    0.31240   0.35540   0.75820   Biso      1.000     H          0.109478  
         H20       1.0000    0.35290   0.50820   0.04500   Biso      1.000     H          0.124632  
         H21       1.0000    0.36960   0.47970   0.61440   Biso      1.000     H          0.101844  
         H22       1.0000    0.26200   0.69260   0.01860   Biso      1.000     H          0.089053  
         H23       1.0000    0.49470   0.18610   0.27920   Biso      1.000     H          0.121013  
         H24       1.0000    0.05710   0.41310   0.54920   Biso      1.000     H          0.077441  
         H25       1.0000    0.54620   0.07500   0.13520   Biso      1.000     H          0.119534  
         H26       1.0000    0.81790   0.07530   0.18610   Biso      1.000     H          0.12645   
         H27       1.0000    0.60400   0.39290   0.15960   Biso      1.000     H          0.128919  
         H28       1.0000    0.91190   0.33550   0.62110   Biso      1.000     H          0.119189  
         H29       1.0000    0.69740   0.48070   0.09470   Biso      1.000     H          0.115382  
         H30       1.0000    0.69740   0.01930   0.59470   Biso      1.000     H          0.115129  
         H31       1.0000    0.10430   0.76850   0.15240   Biso      1.000     H          0.117397  
         H32       1.0000    0.91190   0.16450   0.12110   Biso      1.000     H          0.119464  
         H33       1.0000    0.05710   0.08690   0.04920   Biso      1.000     H          0.077081  
         H34       1.0000    0.81790   0.42470   0.68610   Biso      1.000     H          0.127095  
         H35       1.0000    0.15060   0.88820   0.07130   Biso      1.000     H          0.135029  
         H36       1.0000    0.24070   0.22190   0.94940   Biso      1.000     H          0.098196  
         H37       1.0000    0.34340   0.99080   0.96390   Biso      1.000     H          0.137476  
         H38       1.0000    0.54620   0.42500   0.63520   Biso      1.000     H          0.118805  
         H39       1.0000    0.33290   0.76350   0.06590   Biso      1.000     H          0.081147  
         H40       1.0000    0.49470   0.31390   0.77920   Biso      1.000     H          0.121845  
         H41       1.0000    0.60400   0.10710   0.65960   Biso      1.000     H          0.129309  
         H42       1.0000    0.64710   0.49180   0.95500   Biso      1.000     H          0.124604  
         H43       1.0000    0.44630   0.29440   0.04010   Biso      1.000     H          0.12866   
         H44       1.0000    0.20000   0.81180   0.23140   Biso      1.000     H          0.120588  
         H45       1.0000    0.39600   0.60710   0.84040   Biso      1.000     H          0.128897  
         H46       1.0000    0.84940   0.38820   0.42870   Biso      1.000     H          0.13552   
         H47       1.0000    0.18210   0.92470   0.81390   Biso      1.000     H          0.126421  
         H48       1.0000    0.75930   0.72190   0.55060   Biso      1.000     H          0.098869  
         H49       1.0000    0.65660   0.49080   0.53610   Biso      1.000     H          0.138188  
         H50       1.0000    0.66710   0.26350   0.43410   Biso      1.000     H          0.081937  
         H51       1.0000    0.45380   0.92500   0.86480   Biso      1.000     H          0.119551  
         H52       1.0000    0.73800   0.19260   0.48140   Biso      1.000     H          0.088639  
         H53       1.0000    0.50530   0.81390   0.72080   Biso      1.000     H          0.121007  
         H54       1.0000    0.37660   0.46110   0.21200   Biso      1.000     H          0.118587  
         H55       1.0000    0.64710   0.00820   0.45500   Biso      1.000     H          0.124604  
         H56       1.0000    0.44630   0.20560   0.54010   Biso      1.000     H          0.128774  
         H57       1.0000    0.68760   0.85540   0.74180   Biso      1.000     H          0.108868  
         H58       1.0000    0.74740   0.94880   0.82440   Biso      1.000     H          0.102989  
         H59       1.0000    0.24070   0.27810   0.44940   Biso      1.000     H          0.09884   
         H60       1.0000    0.20000   0.68820   0.73140   Biso      1.000     H          0.121342  
         H61       1.0000    0.31240   0.14460   0.25820   Biso      1.000     H          0.108848  
         H62       1.0000    0.37660   0.03890   0.71200   Biso      1.000     H          0.119011  
         H63       1.0000    0.34340   0.50920   0.46390   Biso      1.000     H          0.138252  
         H64       1.0000    0.10430   0.73150   0.65240   Biso      1.000     H          0.117152  
         H65       1.0000    0.63040   0.97970   0.88560   Biso      1.000     H          0.102686  
         H66       1.0000    0.30260   0.51930   0.90530   Biso      1.000     H          0.115382  
         H67       1.0000    0.94290   0.58690   0.45080   Biso      1.000     H          0.077425  
         H68       1.0000    0.65660   0.00920   0.03610   Biso      1.000     H          0.137624  
         H69       1.0000    0.73800   0.30740   0.98140   Biso      1.000     H          0.089102  
         H70       1.0000    0.66710   0.23650   0.93410   Biso      1.000     H          0.081215  
         H71       1.0000    0.74740   0.55120   0.32440   Biso      1.000     H          0.102512  
         H72       1.0000    0.68760   0.64460   0.24180   Biso      1.000     H          0.109462  
         H73       1.0000    0.63040   0.52030   0.38560   Biso      1.000     H          0.101876  
         H74       1.0000    0.75930   0.77810   0.05060   Biso      1.000     H          0.098363  
         H75       1.0000    0.50530   0.68610   0.22080   Biso      1.000     H          0.121832  
         H76       1.0000    0.36960   0.02030   0.11440   Biso      1.000     H          0.102743  
         H77       1.0000    0.45380   0.57500   0.36480   Biso      1.000     H          0.118772  
         H78       1.0000    0.94290   0.91310   0.95080   Biso      1.000     H          0.077275  
         H79       1.0000    0.18210   0.57530   0.31390   Biso      1.000     H          0.127093  
         H80       1.0000    0.39600   0.89290   0.34040   Biso      1.000     H          0.129303  
         H81       1.0000    0.30260   0.98070   0.40530   Biso      1.000     H          0.115089  
         H82       1.0000    0.08810   0.83550   0.87890   Biso      1.000     H          0.119442  
         H83       1.0000    0.08810   0.66450   0.37890   Biso      1.000     H          0.119218  
         H84       1.0000    0.84940   0.11180   0.92870   Biso      1.000     H          0.135155  
         N1        1.0000    0.64540   0.16900   0.22020   Biso      1.000     N          -0.179192           
         N2        1.0000    0.35460   0.66900   0.27980   Biso      1.000     N          -0.17986  
         N3        1.0000    0.64540   0.33100   0.72020   Biso      1.000     N          -0.179887           
         N4        1.0000    0.85810   0.67380   0.50160   Biso      1.000     N          -0.228185           
         N5        1.0000    0.14190   0.32620   0.49840   Biso      1.000     N          -0.229179           
         N6        1.0000    0.85810   0.82620   0.00160   Biso      1.000     N          -0.228184           
         N7        1.0000    0.35460   0.83100   0.77980   Biso      1.000     N          -0.179191           
         N8        1.0000    0.14190   0.17380   0.99840   Biso      1.000     N          -0.228385           
         O1        1.0000    0.05440   0.81350   0.45669   Biso      1.000     O          -0.538845           
         O2        1.0000    0.85850   0.97810   0.54715   Biso      1.000     O          -0.53195  
         O3        1.0000    0.94560   0.18650   0.54331   Biso      1.000     O          -0.538611           
         O4        1.0000    0.95100   0.34820   0.93372   Biso      1.000     O          -0.54265  
         O5        1.0000    0.86200   0.55520   0.94076   Biso      1.000     O          -0.542064           
         O6        1.0000    0.39420   0.76230   0.00180   Biso      1.000     O          -0.191819           
         O7        1.0000    0.95100   0.15180   0.43372   Biso      1.000     O          -0.541627           
         O8        1.0000    0.85850   0.52190   0.04715   Biso      1.000     O          -0.534436           
         O9        1.0000    0.94560   0.31350   0.04331   Biso      1.000     O          -0.539733           
         O10       1.0000    0.39420   0.73770   0.50180   Biso      1.000     O          -0.191617           
         O11       1.0000    0.60580   0.23770   0.99820   Biso      1.000     O          -0.19183  
         O12       1.0000    0.05440   0.68650   0.95669   Biso      1.000     O          -0.540511           
         O13       1.0000    0.14150   0.47810   0.95285   Biso      1.000     O          -0.533651           
         O14       1.0000    0.04900   0.84820   0.56628   Biso      1.000     O          -0.541837           
         O15       1.0000    0.13800   0.05520   0.55924   Biso      1.000     O          -0.539442           
         O16       1.0000    0.13800   0.44480   0.05924   Biso      1.000     O          -0.54137  
         O17       1.0000    0.04900   0.65180   0.06628   Biso      1.000     O          -0.543372           
         O18       1.0000    0.14150   0.02190   0.45285   Biso      1.000     O          -0.531353           
         O19       1.0000    0.86200   0.94480   0.44076   Biso      1.000     O          -0.539996           
         O20       1.0000    0.60580   0.26230   0.49820   Biso      1.000     O          -0.191606 