
##########################################################################
#               Crystallographic Information Format file
#               Produced by PyCifRW module
#
#  This is a CIF file.  CIF has been adopted by the International
#  Union of Crystallography as the standard for data archiving and
#  transmission.
#
#  For information on this file format, follow the CIF links at
#  http://www.iucr.org
##########################################################################

data_image0

_cell_length_a                          10.3417
_cell_length_b                          13.4148
_cell_length_c                          17.5677
_cell_angle_alpha                       90
_cell_angle_beta                        107.118
_cell_angle_gamma                       90
_symmetry_space_group_name_H-M          'P 1'
_symmetry_int_tables_number             1
loop_
  _symmetry_equiv_pos_as_xyz
         'x, y, z' 
loop_
  _atom_site_label
  _atom_site_occupancy
  _atom_site_fract_x
  _atom_site_fract_y
  _atom_site_fract_z
  _atom_site_thermal_displace_type
  _atom_site_B_iso_or_equiv
  _atom_site_type_symbol
  _atom_site_charge
         C1        1.0000    0.68158   0.77230   0.82256   Biso      1.000     C          0.134416  
         C2        1.0000    0.31842   0.27230   0.17744   Biso      1.000     C          0.134415  
         C3        1.0000    0.28873   0.16180   0.09046   Biso      1.000     C          0.103364  
         C4        1.0000    0.29575   0.88330   0.04270   Biso      1.000     C          0.123727  
         C5        1.0000    0.33737   0.88510   0.16514   Biso      1.000     C          0.12881   
         C6        1.0000    0.90584   0.62240   0.29288   Biso      1.000     C          0.119933  
         C7        1.0000    0.94699   0.75990   0.34938   Biso      1.000     C          0.10329   
         C8        1.0000    0.46296   0.40680   0.45032   Biso      1.000     C          0.111994  
         C9        1.0000    0.96539   0.25970   0.41038   Biso      1.000     C          0.121791  
         C10       1.0000    0.44499   0.25970   0.41038   Biso      1.000     C          0.122995  
         C11       1.0000    0.80173   0.16180   0.09046   Biso      1.000     C          0.103856  
         C12       1.0000    0.70425   0.38330   0.95730   Biso      1.000     C          0.123723  
         C13       1.0000    0.66263   0.38510   0.83486   Biso      1.000     C          0.128796  
         C14       1.0000    0.09416   0.12240   0.70712   Biso      1.000     C          0.119932  
         C15       1.0000    0.05301   0.25990   0.65062   Biso      1.000     C          0.103284  
         C16       1.0000    0.53704   0.90680   0.54968   Biso      1.000     C          0.111993  
         C17       1.0000    0.55501   0.75970   0.58962   Biso      1.000     C          0.122997  
         C18       1.0000    0.85902   0.27230   0.17744   Biso      1.000     C          0.13244   
         C19       1.0000    0.98736   0.40680   0.45032   Biso      1.000     C          0.115728  
         C20       1.0000    0.40239   0.75990   0.34938   Biso      1.000     C          0.103228  
         C21       1.0000    0.38704   0.62240   0.29288   Biso      1.000     C          0.118081  
         C22       1.0000    0.06752   0.51470   0.13504   Biso      1.000     C          0.128716  
         C23       1.0000    0.00691   0.53490   0.01382   Biso      1.000     C          0.112645  
         C24       1.0000    0.93248   0.01470   0.86496   Biso      1.000     C          0.128725  
         C25       1.0000    0.99309   0.03490   0.98618   Biso      1.000     C          0.11264   
         C26       1.0000    0.69753   0.03330   0.39506   Biso      1.000     C          0.127041  
         C27       1.0000    0.65513   0.92130   0.31026   Biso      1.000     C          0.106749  
         C28       1.0000    0.30247   0.53330   0.60494   Biso      1.000     C          0.127042  
         C29       1.0000    0.34487   0.42130   0.68974   Biso      1.000     C          0.106748  
         C30       1.0000    0.25305   0.38330   0.95730   Biso      1.000     C          0.122929  
         C31       1.0000    0.17223   0.38510   0.83486   Biso      1.000     C          0.129321  
         C32       1.0000    0.61296   0.12240   0.70712   Biso      1.000     C          0.118092  
         C33       1.0000    0.59761   0.25990   0.65062   Biso      1.000     C          0.103231  
         C34       1.0000    0.01264   0.90680   0.54968   Biso      1.000     C          0.115729  
         C35       1.0000    0.03461   0.75970   0.58962   Biso      1.000     C          0.121792  
         C36       1.0000    0.71127   0.66180   0.90954   Biso      1.000     C          0.103363  
         C37       1.0000    0.74695   0.88330   0.04270   Biso      1.000     C          0.122932  
         C38       1.0000    0.82777   0.88510   0.16514   Biso      1.000     C          0.129322  
         C39       1.0000    0.14098   0.77230   0.82256   Biso      1.000     C          0.13244   
         C40       1.0000    0.19827   0.66180   0.90954   Biso      1.000     C          0.103855  
         Cd1       1.0000    0.43468   0.52753   0.86936   Biso      1.000     Cd          0.698033  
         Cd2       1.0000    0.98492   0.78934   0.96984   Biso      1.000     Cd          0.66229   
         Cd3       1.0000    0.01508   0.28934   0.03016   Biso      1.000     Cd          0.662291  
         Cd4       1.0000    0.10563   0.74716   0.21125   Biso      1.000     Cd          0.70153   
         Cd5       1.0000    0.35658   0.75208   0.71316   Biso      1.000     Cd          0.665309  
         Cd6       1.0000    0.31361   0.01246   0.62722   Biso      1.000     Cd          0.693577  
         Cd7       1.0000    0.26836   0.27614   0.53672   Biso      1.000     Cd          0.692168  
         Cd8       1.0000    0.56532   0.02753   0.13064   Biso      1.000     Cd          0.698035  
         Cd9       1.0000    0.64342   0.25208   0.28684   Biso      1.000     Cd          0.665308  
         Cd10      1.0000    0.68639   0.51246   0.37278   Biso      1.000     Cd          0.693574  
         Cd11      1.0000    0.73164   0.77614   0.46328   Biso      1.000     Cd          0.692172  
         Cd12      1.0000    0.89437   0.24716   0.78874   Biso      1.000     Cd          0.701589  
         Cl1       1.0000    0.61358   0.43834   0.22716   Biso      1.000     Cl          -0.58079  
         Cl2       1.0000    0.76021   0.59007   0.52042   Biso      1.000     Cl          -0.558048           
         Cl3       1.0000    0.38642   0.93834   0.77284   Biso      1.000     Cl          -0.58079  
         Cl4       1.0000    0.23979   0.09007   0.47958   Biso      1.000     Cl          -0.558044           
         H1        1.0000    0.90150   0.32690   0.20700   Biso      1.000     H          0.09764   
         H2        1.0000    0.20490   0.62240   0.95420   Biso      1.000     H          0.085695  
         H3        1.0000    0.09850   0.82690   0.79300   Biso      1.000     H          0.09764   
         H4        1.0000    0.58100   0.69330   0.59760   Biso      1.000     H          0.090756  
         H5        1.0000    0.54770   0.96540   0.52380   Biso      1.000     H          0.093373  
         H6        1.0000    0.01530   0.32210   0.63400   Biso      1.000     H          0.097021  
         H7        1.0000    0.09200   0.06710   0.73860   Biso      1.000     H          0.087521  
         H8        1.0000    0.62120   0.39770   0.78120   Biso      1.000     H          0.085284  
         H9        1.0000    0.69890   0.39380   0.00860   Biso      1.000     H          0.101126  
         H10       1.0000    0.79510   0.12240   0.04580   Biso      1.000     H          0.085695  
         H11       1.0000    0.61870   0.32210   0.63400   Biso      1.000     H          0.097994  
         H12       1.0000    0.41900   0.19330   0.40240   Biso      1.000     H          0.090756  
         H13       1.0000    0.64660   0.06710   0.73860   Biso      1.000     H          0.087664  
         H14       1.0000    0.98470   0.82210   0.36600   Biso      1.000     H          0.097019  
         H15       1.0000    0.45230   0.46540   0.47620   Biso      1.000     H          0.093374  
         H16       1.0000    0.35690   0.35890   0.71380   Biso      1.000     H          0.088279  
         H17       1.0000    0.30970   0.39380   0.00860   Biso      1.000     H          0.102579  
         H18       1.0000    0.16000   0.39770   0.78120   Biso      1.000     H          0.085586  
         H19       1.0000    0.27810   0.56650   0.55620   Biso      1.000     H          0.10048   
         H20       1.0000    0.64310   0.85890   0.28620   Biso      1.000     H          0.088279  
         H21       1.0000    0.72190   0.06650   0.44380   Biso      1.000     H          0.100479  
         H22       1.0000    0.90730   0.98580   0.81460   Biso      1.000     H          0.096008  
         H23       1.0000    0.97980   0.52100   0.95960   Biso      1.000     H          0.090637  
         H24       1.0000    0.09270   0.48580   0.18540   Biso      1.000     H          0.096012  
         H25       1.0000    0.97610   0.96540   0.52380   Biso      1.000     H          0.092279  
         H26       1.0000    0.01660   0.69330   0.59760   Biso      1.000     H          0.091314  
         H27       1.0000    0.02020   0.02100   0.04040   Biso      1.000     H          0.090635  
         H28       1.0000    0.74930   0.62240   0.95420   Biso      1.000     H          0.086169  
         H29       1.0000    0.69450   0.82690   0.79300   Biso      1.000     H          0.097434  
         H30       1.0000    0.90800   0.56710   0.26140   Biso      1.000     H          0.087519  
         H31       1.0000    0.30110   0.89380   0.99140   Biso      1.000     H          0.101128  
         H32       1.0000    0.25070   0.12240   0.04580   Biso      1.000     H          0.086169  
         H33       1.0000    0.37880   0.89770   0.21880   Biso      1.000     H          0.085285  
         H34       1.0000    0.98340   0.19330   0.40240   Biso      1.000     H          0.091314  
         H35       1.0000    0.30550   0.32690   0.20700   Biso      1.000     H          0.097434  
         H36       1.0000    0.38130   0.82210   0.36600   Biso      1.000     H          0.097994  
         H37       1.0000    0.35340   0.56710   0.26140   Biso      1.000     H          0.087663  
         H38       1.0000    0.84000   0.89770   0.21880   Biso      1.000     H          0.085589  
         H39       1.0000    0.69030   0.89380   0.99140   Biso      1.000     H          0.10258   
         H40       1.0000    0.02390   0.46540   0.47620   Biso      1.000     H          0.092279  
         N1        1.0000    0.48542   0.13000   0.66184   Biso      1.000     N          -0.182073           
         N2        1.0000    0.47538   0.21940   0.62516   Biso      1.000     N          -0.191932           
         N3        1.0000    0.94264   0.82190   0.54448   Biso      1.000     N          -0.319814           
         N4        1.0000    0.13892   0.89900   0.59524   Biso      1.000     N          -0.198585           
         N5        1.0000    0.71962   0.91600   0.10804   Biso      1.000     N          -0.314606           
         N6        1.0000    0.77674   0.73900   0.88728   Biso      1.000     N          -0.320446           
         N7        1.0000    0.56751   0.72050   0.80462   Biso      1.000     N          -0.177891           
         N8        1.0000    0.58813   0.64840   0.86146   Biso      1.000     N          -0.207176           
         N9        1.0000    0.86298   0.83440   0.05836   Biso      1.000     N          -0.198121           
         N10       1.0000    0.68824   0.20190   0.70308   Biso      1.000     N          -0.329372           
         N11       1.0000    0.15365   0.80220   0.62170   Biso      1.000     N          -0.207544           
         N12       1.0000    0.08430   0.33540   0.86060   Biso      1.000     N          -0.205714           
         N13       1.0000    0.06181   0.61430   0.12362   Biso      1.000     N          -0.223561           
         N14       1.0000    0.28038   0.41600   0.89196   Biso      1.000     N          -0.314606           
         N15       1.0000    0.36540   0.50510   0.73080   Biso      1.000     N          -0.222045           
         N16       1.0000    0.33713   0.58040   0.67426   Biso      1.000     N          -0.200125           
         N17       1.0000    0.30549   0.43300   0.61098   Biso      1.000     N          -0.326742           
         N18       1.0000    0.63460   0.00510   0.26920   Biso      1.000     N          -0.222046           
         N19       1.0000    0.66287   0.08040   0.32574   Biso      1.000     N          -0.200125           
         N20       1.0000    0.69451   0.93300   0.38902   Biso      1.000     N          -0.326741           
         N21       1.0000    0.93819   0.11430   0.87638   Biso      1.000     N          -0.223631           
         N22       1.0000    0.97927   0.12540   0.95854   Biso      1.000     N          -0.204644           
         N23       1.0000    0.96521   0.96260   0.93042   Biso      1.000     N          -0.320928           
         N24       1.0000    0.91570   0.83540   0.13940   Biso      1.000     N          -0.205677           
         N25       1.0000    0.02073   0.62540   0.04146   Biso      1.000     N          -0.204664           
         N26       1.0000    0.03479   0.46260   0.06958   Biso      1.000     N          -0.320923           
         N27       1.0000    0.13702   0.33440   0.94164   Biso      1.000     N          -0.198109           
         N28       1.0000    0.31176   0.70190   0.29692   Biso      1.000     N          -0.329357           
         N29       1.0000    0.98516   0.70190   0.29692   Biso      1.000     N          -0.329154           
         N30       1.0000    0.52462   0.71940   0.37484   Biso      1.000     N          -0.191953           
         N31       1.0000    0.27333   0.64840   0.86146   Biso      1.000     N          -0.208438           
         N32       1.0000    0.23711   0.72050   0.80462   Biso      1.000     N          -0.176717           
         N33       1.0000    0.11054   0.73900   0.88728   Biso      1.000     N          -0.318536           
         N34       1.0000    0.46805   0.80220   0.62170   Biso      1.000     N          -0.209354           
         N35       1.0000    0.45632   0.89900   0.59524   Biso      1.000     N          -0.19555  
         N36       1.0000    0.60184   0.82190   0.54448   Biso      1.000     N          -0.319009           
         N37       1.0000    0.17642   0.13000   0.66184   Biso      1.000     N          -0.184602           
         N38       1.0000    0.01484   0.20190   0.70308   Biso      1.000     N          -0.329123           
         N39       1.0000    0.77630   0.33540   0.86060   Biso      1.000     N          -0.205335           
         N40       1.0000    0.80462   0.33440   0.94164   Biso      1.000     N          -0.198416           
         N41       1.0000    0.61158   0.41600   0.89196   Biso      1.000     N          -0.313387           
         N42       1.0000    0.72667   0.14840   0.13854   Biso      1.000     N          -0.208439           
         N43       1.0000    0.76289   0.22050   0.19538   Biso      1.000     N          -0.176717           
         N44       1.0000    0.51458   0.63000   0.33816   Biso      1.000     N          -0.182057           
         N45       1.0000    0.88946   0.23900   0.11272   Biso      1.000     N          -0.318536           
         N46       1.0000    0.54368   0.39900   0.40476   Biso      1.000     N          -0.195557           
         N47       1.0000    0.39816   0.32190   0.45552   Biso      1.000     N          -0.31901  
         N48       1.0000    0.85022   0.71940   0.37484   Biso      1.000     N          -0.190194           
         N49       1.0000    0.82358   0.63000   0.33816   Biso      1.000     N          -0.184588           
         N50       1.0000    0.22370   0.83540   0.13940   Biso      1.000     N          -0.20535  
         N51       1.0000    0.19538   0.83440   0.05836   Biso      1.000     N          -0.198412           
         N52       1.0000    0.38842   0.91600   0.10804   Biso      1.000     N          -0.313385           
         N53       1.0000    0.41187   0.14840   0.13854   Biso      1.000     N          -0.207188           
         N54       1.0000    0.43249   0.22050   0.19538   Biso      1.000     N          -0.17788  
         N55       1.0000    0.22326   0.23900   0.11272   Biso      1.000     N          -0.320446           
         N56       1.0000    0.84635   0.30220   0.37830   Biso      1.000     N          -0.207555           
         N57       1.0000    0.86108   0.39900   0.40476   Biso      1.000     N          -0.198572           
         N58       1.0000    0.05736   0.32190   0.45552   Biso      1.000     N          -0.319816           
         N59       1.0000    0.53195   0.30220   0.37830   Biso      1.000     N          -0.209345           
         N60       1.0000    0.14978   0.21940   0.62516   Biso      1.000     N          -0.190169 