
##########################################################################
#               Crystallographic Information Format file
#               Produced by PyCifRW module
#
#  This is a CIF file.  CIF has been adopted by the International
#  Union of Crystallography as the standard for data archiving and
#  transmission.
#
#  For information on this file format, follow the CIF links at
#  http://www.iucr.org
##########################################################################

data_image0

_cell_length_a                          16.1475
_cell_length_b                          12.516
_cell_length_c                          19.8687
_cell_angle_alpha                       90
_cell_angle_beta                        93.321
_cell_angle_gamma                       90
_symmetry_space_group_name_H-M          'P 1'
_symmetry_int_tables_number             1
loop_
  _symmetry_equiv_pos_as_xyz
         'x, y, z' 
loop_
  _atom_site_label
  _atom_site_occupancy
  _atom_site_fract_x
  _atom_site_fract_y
  _atom_site_fract_z
  _atom_site_thermal_displace_type
  _atom_site_B_iso_or_equiv
  _atom_site_type_symbol
  _atom_site_charge
         C1        1.0000    0.33630   0.18560   0.92866   Biso      1.000     C          0.08615700000000001           
         C2        1.0000    0.16820   0.06260   0.11857   Biso      1.000     C          0.082587  
         C3        1.0000    0.41720   0.36740   0.31324   Biso      1.000     C          -0.12231199999999999          
         C4        1.0000    0.20360   0.96210   0.12298   Biso      1.000     C          -0.144024           
         C5        1.0000    0.16870   0.88200   0.16042   Biso      1.000     C          -0.011479999999999999         
         C6        1.0000    0.09680   0.90340   0.19436   Biso      1.000     C          -0.102285           
         C7        1.0000    0.05970   0.00200   0.18889   Biso      1.000     C          -0.0038770000000000002        
         C8        1.0000    0.20980   0.77370   0.16720   Biso      1.000     C          0.620747  
         C9        1.0000    0.98310   0.02690   0.22460   Biso      1.000     C          0.555479  
         C10       1.0000    0.44980   0.28970   0.35676   Biso      1.000     C          -0.008066           
         C11       1.0000    0.29020   0.31390   0.01677   Biso      1.000     C          -0.141862           
         C12       1.0000    0.29254   0.21080   0.99124   Biso      1.000     C          0.10019   
         C13       1.0000    0.40960   0.26450   0.41407   Biso      1.000     C          -0.145248           
         C14       1.0000    0.25241   0.13020   0.02433   Biso      1.000     C          -0.195427           
         C15       1.0000    0.20880   0.15090   0.08124   Biso      1.000     C          0.100161  
         C16       1.0000    0.20490   0.25470   0.10344   Biso      1.000     C          -0.12758  
         C17       1.0000    0.24560   0.33650   0.07329   Biso      1.000     C          -0.007566           
         C18       1.0000    0.24480   0.44540   0.10324   Biso      1.000     C          0.614409  
         C19       1.0000    0.33630   0.31440   0.42866   Biso      1.000     C          0.086159  
         C20       1.0000    0.30370   0.39010   0.38354   Biso      1.000     C          -0.147525           
         C21       1.0000    0.20880   0.34910   0.58124   Biso      1.000     C          0.10016   
         C22       1.0000    0.59040   0.76450   0.08593   Biso      1.000     C          -0.145251           
         C23       1.0000    0.09530   0.08190   0.15101   Biso      1.000     C          -0.142126           
         C24       1.0000    0.55020   0.78970   0.14324   Biso      1.000     C          -0.008067           
         C25       1.0000    0.34340   0.41730   0.32613   Biso      1.000     C          -0.005775           
         C26       1.0000    0.53020   0.26470   0.84170   Biso      1.000     C          0.555979  
         C27       1.0000    0.29254   0.28920   0.49124   Biso      1.000     C          0.100189  
         C28       1.0000    0.20490   0.24530   0.60344   Biso      1.000     C          -0.127576           
         C29       1.0000    0.24560   0.16350   0.57329   Biso      1.000     C          -0.007568000000000001         
         C30       1.0000    0.24480   0.05460   0.60324   Biso      1.000     C          0.614408  
         C31       1.0000    0.29020   0.18610   0.51677   Biso      1.000     C          -0.14185699999999998          
         C32       1.0000    0.98310   0.47310   0.72460   Biso      1.000     C          0.555483  
         C33       1.0000    0.20980   0.72630   0.66720   Biso      1.000     C          0.620747  
         C34       1.0000    0.05970   0.49800   0.68889   Biso      1.000     C          -0.0038829999999999997        
         C35       1.0000    0.09680   0.59660   0.69436   Biso      1.000     C          -0.102278           
         C36       1.0000    0.16870   0.61800   0.66042   Biso      1.000     C          -0.011482           
         C37       1.0000    0.20360   0.53790   0.62298   Biso      1.000     C          -0.144025           
         C38       1.0000    0.16820   0.43740   0.61857   Biso      1.000     C          0.082591  
         C39       1.0000    0.09530   0.41810   0.65101   Biso      1.000     C          -0.142125           
         C40       1.0000    0.30370   0.10990   0.88354   Biso      1.000     C          -0.147526           
         C41       1.0000    0.58280   0.86740   0.18676   Biso      1.000     C          -0.12230799999999999          
         C42       1.0000    0.30460   0.49580   0.27686   Biso      1.000     C          0.619707  
         C43       1.0000    0.40960   0.23550   0.91407   Biso      1.000     C          -0.14525  
         C44       1.0000    0.44980   0.21030   0.85676   Biso      1.000     C          -0.008065000000000001         
         C45       1.0000    0.53020   0.23530   0.34170   Biso      1.000     C          0.555987  
         C46       1.0000    0.41720   0.13260   0.81324   Biso      1.000     C          -0.12231099999999999          
         C47       1.0000    0.34340   0.08270   0.82613   Biso      1.000     C          -0.005776           
         C48       1.0000    0.30460   0.00420   0.77686   Biso      1.000     C          0.619708  
         C49       1.0000    0.75520   0.55460   0.89676   Biso      1.000     C          0.614409  
         C50       1.0000    0.25241   0.36980   0.52433   Biso      1.000     C          -0.195428           
         C51       1.0000    0.79510   0.74530   0.89656   Biso      1.000     C          -0.127582           
         C52       1.0000    0.94030   0.50200   0.31111   Biso      1.000     C          -0.003882           
         C53       1.0000    0.75440   0.66350   0.92671   Biso      1.000     C          -0.007567           
         C54       1.0000    0.01690   0.52690   0.27540   Biso      1.000     C          0.5554819999999999  
         C55       1.0000    0.79020   0.22630   0.83280   Biso      1.000     C          0.620747  
         C56       1.0000    0.70980   0.81390   0.48323   Biso      1.000     C          -0.141862           
         C57       1.0000    0.70746   0.71080   0.50876   Biso      1.000     C          0.10019   
         C58       1.0000    0.94030   0.99800   0.81111   Biso      1.000     C          -0.0038829999999999997        
         C59       1.0000    0.74759   0.63020   0.47567   Biso      1.000     C          -0.195427           
         C60       1.0000    0.79120   0.65090   0.41876   Biso      1.000     C          0.10016   
         C61       1.0000    0.90320   0.40340   0.30564   Biso      1.000     C          -0.10228  
         C62       1.0000    0.90320   0.09660   0.80564   Biso      1.000     C          -0.102279           
         C63       1.0000    0.75440   0.83650   0.42671   Biso      1.000     C          -0.00757  
         C64       1.0000    0.75520   0.94540   0.39676   Biso      1.000     C          0.614409  
         C65       1.0000    0.83130   0.11800   0.83958   Biso      1.000     C          -0.011482           
         C66       1.0000    0.79640   0.03790   0.87702   Biso      1.000     C          -0.144025           
         C67       1.0000    0.83180   0.93740   0.88143   Biso      1.000     C          0.08259   
         C68       1.0000    0.90470   0.91810   0.84899   Biso      1.000     C          -0.142125           
         C69       1.0000    0.69540   0.99580   0.22314   Biso      1.000     C          0.619707  
         C70       1.0000    0.46980   0.73530   0.15830   Biso      1.000     C          0.5559689999999999  
         C71       1.0000    0.65660   0.91730   0.17387   Biso      1.000     C          -0.005778           
         C72       1.0000    0.79510   0.75470   0.39656   Biso      1.000     C          -0.127576           
         C73       1.0000    0.01690   0.97310   0.77540   Biso      1.000     C          0.555484  
         C74       1.0000    0.79020   0.27370   0.33280   Biso      1.000     C          0.620748  
         C75       1.0000    0.79640   0.46210   0.37702   Biso      1.000     C          -0.144027           
         C76       1.0000    0.74759   0.86980   0.97567   Biso      1.000     C          -0.195429           
         C77       1.0000    0.69630   0.89010   0.11646   Biso      1.000     C          -0.147529           
         C78       1.0000    0.83130   0.38200   0.33958   Biso      1.000     C          -0.011479999999999999         
         C79       1.0000    0.59040   0.73550   0.58593   Biso      1.000     C          -0.145251           
         C80       1.0000    0.66370   0.81440   0.07134   Biso      1.000     C          0.086161  
         C81       1.0000    0.55020   0.71030   0.64324   Biso      1.000     C          -0.008066           
         C82       1.0000    0.66370   0.68560   0.57134   Biso      1.000     C          0.086158  
         C83       1.0000    0.58280   0.63260   0.68676   Biso      1.000     C          -0.12231099999999999          
         C84       1.0000    0.70746   0.78920   0.00876   Biso      1.000     C          0.100191  
         C85       1.0000    0.46980   0.76470   0.65830   Biso      1.000     C          0.555986  
         C86       1.0000    0.69540   0.50420   0.72314   Biso      1.000     C          0.619708  
         C87       1.0000    0.70980   0.68610   0.98323   Biso      1.000     C          -0.14185899999999999          
         C88       1.0000    0.90470   0.58190   0.34899   Biso      1.000     C          -0.142126           
         C89       1.0000    0.79120   0.84910   0.91876   Biso      1.000     C          0.100165  
         C90       1.0000    0.83180   0.56260   0.38143   Biso      1.000     C          0.082591  
         C91       1.0000    0.65660   0.58270   0.67387   Biso      1.000     C          -0.005776           
         C92       1.0000    0.69630   0.60990   0.61646   Biso      1.000     C          -0.147524           
         H1        1.0000    0.92980   0.85130   0.85260   Biso      1.000     H          0.133253  
         H2        1.0000    0.31850   0.13160   0.49610   Biso      1.000     H          0.149007  
         H3        1.0000    0.82630   0.72990   0.85990   Biso      1.000     H          0.133196  
         H4        1.0000    0.25140   0.55200   0.60060   Biso      1.000     H          0.131951  
         H5        1.0000    0.07410   0.64930   0.72070   Biso      1.000     H          0.136012  
         H6        1.0000    0.92590   0.14930   0.77930   Biso      1.000     H          0.136012  
         H7        1.0000    0.43220   0.21300   0.44350   Biso      1.000     H          0.13184300000000002           
         H8        1.0000    0.74530   0.93940   0.99190   Biso      1.000     H          0.12984   
         H9        1.0000    0.07020   0.35130   0.64740   Biso      1.000     H          0.133252  
         H10       1.0000    0.44500   0.38620   0.27530   Biso      1.000     H          0.149378  
         H11       1.0000    0.68150   0.63160   0.00390   Biso      1.000     H          0.149007  
         H12       1.0000    0.74860   0.05200   0.89940   Biso      1.000     H          0.131951  
         H13       1.0000    0.25390   0.42340   0.39210   Biso      1.000     H          0.127708  
         H14       1.0000    0.55500   0.88620   0.22470   Biso      1.000     H          0.14938099999999999           
         H15       1.0000    0.17370   0.22990   0.64010   Biso      1.000     H          0.133195  
         H16       1.0000    0.25470   0.43940   0.50810   Biso      1.000     H          0.129839  
         H17       1.0000    0.74610   0.57660   0.60790   Biso      1.000     H          0.127709  
         H18       1.0000    0.56780   0.78700   0.55650   Biso      1.000     H          0.13184400000000002           
         H19       1.0000    0.55500   0.61380   0.72470   Biso      1.000     H          0.14937899999999998           
         H20       1.0000    0.92980   0.64870   0.35260   Biso      1.000     H          0.133253  
         H21       1.0000    0.74860   0.44800   0.39940   Biso      1.000     H          0.13195199999999999           
         H22       1.0000    0.92590   0.35070   0.27930   Biso      1.000     H          0.13601300000000002           
         H23       1.0000    0.68150   0.86840   0.50390   Biso      1.000     H          0.149008  
         H24       1.0000    0.74530   0.56060   0.49190   Biso      1.000     H          0.12984   
         H25       1.0000    0.82630   0.77010   0.35990   Biso      1.000     H          0.133196  
         H26       1.0000    0.17370   0.27010   0.14010   Biso      1.000     H          0.133196  
         H27       1.0000    0.25470   0.06060   0.00810   Biso      1.000     H          0.12984   
         H28       1.0000    0.31850   0.36840   0.99610   Biso      1.000     H          0.149009  
         H29       1.0000    0.25140   0.94800   0.10060   Biso      1.000     H          0.13195199999999999           
         H30       1.0000    0.07020   0.14870   0.14740   Biso      1.000     H          0.133253  
         H31       1.0000    0.07410   0.85070   0.22070   Biso      1.000     H          0.13601300000000002           
         H32       1.0000    0.43220   0.28700   0.94350   Biso      1.000     H          0.13184400000000002           
         H33       1.0000    0.25390   0.07660   0.89210   Biso      1.000     H          0.127709  
         H34       1.0000    0.74610   0.92340   0.10790   Biso      1.000     H          0.127709  
         H35       1.0000    0.56780   0.71300   0.05650   Biso      1.000     H          0.13184400000000002           
         H36       1.0000    0.44500   0.11380   0.77530   Biso      1.000     H          0.14937999999999999           
         O1        1.0000    0.94710   0.11380   0.21508   Biso      1.000     O          -0.472689           
         O2        1.0000    0.18929   0.46350   0.14305   Biso      1.000     O          -0.570755           
         O3        1.0000    0.29896   0.51174   0.08840   Biso      1.000     O          -0.526455           
         O4        1.0000    0.70104   0.01174   0.41160   Biso      1.000     O          -0.526455           
         O5        1.0000    0.81071   0.96350   0.35695   Biso      1.000     O          -0.570755           
         O6        1.0000    0.05290   0.61380   0.28492   Biso      1.000     O          -0.472691           
         O7        1.0000    0.81130   0.21370   0.28743   Biso      1.000     O          -0.5728300000000001           
         O8        1.0000    0.73383   0.25219   0.36859   Biso      1.000     O          -0.528201           
         O9        1.0000    0.64983   0.46530   0.76605   Biso      1.000     O          -0.550717           
         O10       1.0000    0.77026   0.48300   0.71794   Biso      1.000     O          -0.548872           
         O11       1.0000    0.44199   0.83500   0.61782   Biso      1.000     O          -0.48873  
         O12       1.0000    0.43417   0.74010   0.70941   Biso      1.000     O          -0.42667299999999997          
         O13       1.0000    0.95559   0.95980   0.26469   Biso      1.000     O          -0.49245900000000004          
         O14       1.0000    0.04441   0.45980   0.23531   Biso      1.000     O          -0.492461           
         O15       1.0000    0.26617   0.75219   0.13141   Biso      1.000     O          -0.5282020000000001           
         O16       1.0000    0.73383   0.24781   0.86859   Biso      1.000     O          -0.5282020000000001           
         O17       1.0000    0.44199   0.66500   0.11782   Biso      1.000     O          -0.488728           
         O18       1.0000    0.56583   0.25990   0.29059   Biso      1.000     O          -0.426676           
         O19       1.0000    0.55801   0.16500   0.38218   Biso      1.000     O          -0.48873199999999994          
         O20       1.0000    0.22974   0.51700   0.28206   Biso      1.000     O          -0.548872           
         O21       1.0000    0.35017   0.53470   0.23395   Biso      1.000     O          -0.550716           
         O22       1.0000    0.18870   0.78630   0.71257   Biso      1.000     O          -0.572829           
         O23       1.0000    0.26617   0.74781   0.63141   Biso      1.000     O          -0.528201           
         O24       1.0000    0.95559   0.54020   0.76469   Biso      1.000     O          -0.49246  
         O25       1.0000    0.94710   0.38620   0.71508   Biso      1.000     O          -0.472692           
         O26       1.0000    0.18929   0.03650   0.64305   Biso      1.000     O          -0.570755           
         O27       1.0000    0.29896   0.98826   0.58840   Biso      1.000     O          -0.526455           
         O28       1.0000    0.43417   0.75990   0.20941   Biso      1.000     O          -0.426655           
         O29       1.0000    0.56583   0.24010   0.79059   Biso      1.000     O          -0.426667           
         O30       1.0000    0.22974   0.98300   0.78206   Biso      1.000     O          -0.548872           
         O31       1.0000    0.35017   0.96530   0.73395   Biso      1.000     O          -0.550717           
         O32       1.0000    0.18870   0.71370   0.21257   Biso      1.000     O          -0.5728300000000001           
         O33       1.0000    0.70104   0.48826   0.91160   Biso      1.000     O          -0.526455           
         O34       1.0000    0.81071   0.53650   0.85695   Biso      1.000     O          -0.570755           
         O35       1.0000    0.05290   0.88620   0.78492   Biso      1.000     O          -0.47269300000000003          
         O36       1.0000    0.04441   0.04020   0.73531   Biso      1.000     O          -0.492461           
         O37       1.0000    0.81130   0.28630   0.78743   Biso      1.000     O          -0.572829           
         O38       1.0000    0.64983   0.03470   0.26605   Biso      1.000     O          -0.550718           
         O39       1.0000    0.77026   0.01700   0.21794   Biso      1.000     O          -0.548872           
         O40       1.0000    0.55801   0.33500   0.88218   Biso      1.000     O          -0.48872899999999997          
         Zn1       1.0000    0.14325   0.56476   0.21031   Biso      1.000     Zn          0.975965  
         Zn2       1.0000    0.33419   0.62584   0.15396   Biso      1.000     Zn          0.949951  
         Zn3       1.0000    0.33419   0.87416   0.65396   Biso      1.000     Zn          0.949951  
         Zn4       1.0000    0.85675   0.43524   0.78969   Biso      1.000     Zn          0.975967  
         Zn5       1.0000    0.85675   0.06476   0.28969   Biso      1.000     Zn          0.975966  
         Zn6       1.0000    0.66581   0.12584   0.34604   Biso      1.000     Zn          0.949952  
         Zn7       1.0000    0.14325   0.93524   0.71031   Biso      1.000     Zn          0.9759680000000001  
         Zn8       1.0000    0.66581   0.37416   0.84604   Biso      1.000     Zn          0.949951 