
##########################################################################
#               Crystallographic Information Format file
#               Produced by PyCifRW module
#
#  This is a CIF file.  CIF has been adopted by the International
#  Union of Crystallography as the standard for data archiving and
#  transmission.
#
#  For information on this file format, follow the CIF links at
#  http://www.iucr.org
##########################################################################

data_image0

_cell_length_a                          10.2
_cell_length_b                          10.2
_cell_length_c                          14.4386
_cell_angle_alpha                       90
_cell_angle_beta                        90
_cell_angle_gamma                       90
_symmetry_space_group_name_H-M          'P 1'
_symmetry_int_tables_number             1
loop_
  _symmetry_equiv_pos_as_xyz
         'x, y, z' 
loop_
  _atom_site_label
  _atom_site_occupancy
  _atom_site_fract_x
  _atom_site_fract_y
  _atom_site_fract_z
  _atom_site_thermal_displace_type
  _atom_site_B_iso_or_equiv
  _atom_site_type_symbol
  _atom_site_charge
         C1        1.0000    0.00000   0.61020   0.00000   Biso      1.000     C          0.710777  
         C2        1.0000    0.38980   0.00000   0.25000   Biso      1.000     C          0.710777  
         C3        1.0000    0.95840   0.25940   0.92270   Biso      1.000     C          -0.024704           
         C4        1.0000    0.95730   0.39430   0.92270   Biso      1.000     C          -0.09975  
         C5        1.0000    0.80820   0.00000   0.25000   Biso      1.000     C          -0.110838           
         C6        1.0000    0.53750   0.00000   0.25000   Biso      1.000     C          -0.034354           
         C7        1.0000    0.18110   0.91150   0.91020   Biso      1.000     C          0.688517  
         C8        1.0000    0.25940   0.95840   0.82730   Biso      1.000     C          -0.024704           
         C9        1.0000    0.39430   0.95730   0.82730   Biso      1.000     C          -0.09975  
         C10       1.0000    0.04270   0.39430   0.07730   Biso      1.000     C          -0.09975  
         C11       1.0000    0.81890   0.08850   0.41020   Biso      1.000     C          0.688516  
         C12       1.0000    0.74060   0.04160   0.32730   Biso      1.000     C          -0.024701           
         C13       1.0000    0.60570   0.04270   0.32730   Biso      1.000     C          -0.09975099999999999          
         C14       1.0000    0.04160   0.25940   0.07730   Biso      1.000     C          -0.024704           
         C15       1.0000    0.08850   0.18110   0.16020   Biso      1.000     C          0.688516  
         C16       1.0000    0.91150   0.81890   0.66020   Biso      1.000     C          0.688517  
         C17       1.0000    0.95840   0.74060   0.57730   Biso      1.000     C          -0.024704           
         C18       1.0000    0.95730   0.60570   0.57730   Biso      1.000     C          -0.09975  
         C19       1.0000    0.46250   0.00000   0.75000   Biso      1.000     C          -0.034354           
         C20       1.0000    0.19180   0.00000   0.75000   Biso      1.000     C          -0.11083599999999999          
         C21       1.0000    0.91150   0.18110   0.83980   Biso      1.000     C          0.688516  
         C22       1.0000    0.04270   0.60570   0.42270   Biso      1.000     C          -0.09975  
         C23       1.0000    0.18110   0.08850   0.58980   Biso      1.000     C          0.688516  
         C24       1.0000    0.25940   0.04160   0.67270   Biso      1.000     C          -0.024702           
         C25       1.0000    0.39430   0.04270   0.67270   Biso      1.000     C          -0.09975099999999999          
         C26       1.0000    0.60570   0.95730   0.17270   Biso      1.000     C          -0.09975099999999999          
         C27       1.0000    0.00000   0.80820   0.50000   Biso      1.000     C          -0.11083599999999999          
         C28       1.0000    0.74060   0.95840   0.17270   Biso      1.000     C          -0.024702           
         C29       1.0000    0.00000   0.53750   0.50000   Biso      1.000     C          -0.034355000000000004         
         C30       1.0000    0.61020   0.00000   0.75000   Biso      1.000     C          0.710777  
         C31       1.0000    0.00000   0.46250   0.00000   Biso      1.000     C          -0.034355000000000004         
         C32       1.0000    0.00000   0.19180   0.00000   Biso      1.000     C          -0.11083299999999999          
         C33       1.0000    0.08850   0.81890   0.33980   Biso      1.000     C          0.688516  
         C34       1.0000    0.04160   0.74060   0.42270   Biso      1.000     C          -0.024702           
         C35       1.0000    0.81890   0.91150   0.08980   Biso      1.000     C          0.688516  
         C36       1.0000    0.00000   0.38980   0.50000   Biso      1.000     C          0.710777  
         H1        1.0000    0.55930   0.07280   0.38020   Biso      1.000     H          0.130012  
         H2        1.0000    0.55930   0.92720   0.11980   Biso      1.000     H          0.130012  
         H3        1.0000    0.07280   0.44070   0.13020   Biso      1.000     H          0.130012  
         H4        1.0000    0.00000   0.09870   0.00000   Biso      1.000     H          0.11129800000000001           
         H5        1.0000    0.07280   0.55930   0.36980   Biso      1.000     H          0.130012  
         H6        1.0000    0.44070   0.92720   0.88020   Biso      1.000     H          0.130012  
         H7        1.0000    0.44070   0.07280   0.61980   Biso      1.000     H          0.130012  
         H8        1.0000    0.90130   0.00000   0.25000   Biso      1.000     H          0.11129800000000001           
         H9        1.0000    0.92720   0.44070   0.86980   Biso      1.000     H          0.130012  
         H10       1.0000    0.09870   0.00000   0.75000   Biso      1.000     H          0.11129800000000001           
         H11       1.0000    0.92720   0.55930   0.63020   Biso      1.000     H          0.130012  
         H12       1.0000    0.00000   0.90130   0.50000   Biso      1.000     H          0.11129800000000001           
         O1        1.0000    0.09610   0.23990   0.23720   Biso      1.000     O          -0.7213609999999999           
         O2        1.0000    0.11480   0.06480   0.14990   Biso      1.000     O          -0.711278           
         O3        1.0000    0.33500   0.92650   0.19190   Biso      1.000     O          -0.7169409999999999           
         O4        1.0000    0.90390   0.76010   0.73720   Biso      1.000     O          -0.7213609999999999           
         O5        1.0000    0.93520   0.88520   0.10010   Biso      1.000     O          -0.711278           
         O6        1.0000    0.76010   0.90390   0.01280   Biso      1.000     O          -0.7213609999999999           
         O7        1.0000    0.66500   0.07350   0.69190   Biso      1.000     O          -0.7169409999999999           
         O8        1.0000    0.06480   0.11480   0.60010   Biso      1.000     O          -0.711278           
         O9        1.0000    0.23990   0.09610   0.51280   Biso      1.000     O          -0.7213609999999999           
         O10       1.0000    0.07350   0.33500   0.44190   Biso      1.000     O          -0.7169409999999999           
         O11       1.0000    0.11480   0.93520   0.35010   Biso      1.000     O          -0.711278           
         O12       1.0000    0.09610   0.76010   0.26280   Biso      1.000     O          -0.7213609999999999           
         O13       1.0000    0.92650   0.66500   0.94190   Biso      1.000     O          -0.7169409999999999           
         O14       1.0000    0.88520   0.06480   0.85010   Biso      1.000     O          -0.711278           
         O15       1.0000    0.07350   0.66500   0.05810   Biso      1.000     O          -0.7169409999999999           
         O16       1.0000    0.90390   0.23990   0.76280   Biso      1.000     O          -0.7213609999999999           
         O17       1.0000    0.06480   0.88520   0.89990   Biso      1.000     O          -0.711278           
         O18       1.0000    0.23990   0.90390   0.98720   Biso      1.000     O          -0.7213609999999999           
         O19       1.0000    0.33500   0.07350   0.30810   Biso      1.000     O          -0.7169409999999999           
         O20       1.0000    0.93520   0.11480   0.39990   Biso      1.000     O          -0.711278           
         O21       1.0000    0.92650   0.33500   0.55810   Biso      1.000     O          -0.7169409999999999           
         O22       1.0000    0.88520   0.93520   0.64990   Biso      1.000     O          -0.711278           
         O23       1.0000    0.66500   0.92650   0.80810   Biso      1.000     O          -0.7169409999999999           
         O24       1.0000    0.76010   0.09610   0.48720   Biso      1.000     O          -0.7213609999999999           
         Tm1       1.0000    0.85022   0.85022   0.87500   Biso      1.000     Tm          2.234125  
         Tm2       1.0000    0.14978   0.14978   0.37500   Biso      1.000     Tm          2.234126  
         Tm3       1.0000    0.85022   0.14978   0.62500   Biso      1.000     Tm          2.234126  
         Tm4       1.0000    0.14978   0.85022   0.12500   Biso      1.000     Tm          2.234126 