
##########################################################################
#               Crystallographic Information Format file
#               Produced by PyCifRW module
#
#  This is a CIF file.  CIF has been adopted by the International
#  Union of Crystallography as the standard for data archiving and
#  transmission.
#
#  For information on this file format, follow the CIF links at
#  http://www.iucr.org
##########################################################################

data_image0

_cell_length_a                          10.255
_cell_length_b                          10.255
_cell_length_c                          14.494
_cell_angle_alpha                       90
_cell_angle_beta                        90
_cell_angle_gamma                       90
_symmetry_space_group_name_H-M          'P 1'
_symmetry_int_tables_number             1
loop_
  _symmetry_equiv_pos_as_xyz
         'x, y, z' 
loop_
  _atom_site_label
  _atom_site_occupancy
  _atom_site_fract_x
  _atom_site_fract_y
  _atom_site_fract_z
  _atom_site_thermal_displace_type
  _atom_site_B_iso_or_equiv
  _atom_site_type_symbol
  _atom_site_charge
         C1        1.0000    0.53820   0.00200   0.33140   Biso      1.000     C          -0.03259  
         C2        1.0000    0.73960   0.04120   0.25320   Biso      1.000     C          -0.024439           
         C3        1.0000    0.09100   0.81690   0.24060   Biso      1.000     C          0.696667  
         C4        1.0000    0.95530   0.60640   0.00400   Biso      1.000     C          -0.104441           
         C5        1.0000    0.60640   0.04470   0.25400   Biso      1.000     C          -0.10444  
         C6        1.0000    0.91560   0.81730   0.91990   Biso      1.000     C          0.6865439999999999  
         C7        1.0000    0.46180   0.99800   0.83140   Biso      1.000     C          -0.03259  
         C8        1.0000    0.04180   0.60620   0.15830   Biso      1.000     C          -0.111399           
         C9        1.0000    0.81690   0.90900   0.49060   Biso      1.000     C          0.696667  
         C10       1.0000    0.99800   0.53820   0.08140   Biso      1.000     C          -0.032589           
         C11       1.0000    0.04420   0.74050   0.15830   Biso      1.000     C          -0.027518           
         C12       1.0000    0.39380   0.04180   0.90830   Biso      1.000     C          -0.1114   
         C13       1.0000    0.95880   0.73960   0.00320   Biso      1.000     C          -0.024439           
         C14       1.0000    0.99640   0.38950   0.08290   Biso      1.000     C          0.7094590000000001  
         C15       1.0000    0.00220   0.80830   0.07970   Biso      1.000     C          -0.11265399999999999          
         C16       1.0000    0.18310   0.09100   0.99060   Biso      1.000     C          0.696667  
         C17       1.0000    0.38950   0.00360   0.33290   Biso      1.000     C          0.7094590000000001  
         C18       1.0000    0.74050   0.95580   0.40830   Biso      1.000     C          -0.027518           
         C19       1.0000    0.25950   0.04420   0.90830   Biso      1.000     C          -0.027518           
         C20       1.0000    0.95820   0.39380   0.65830   Biso      1.000     C          -0.111399           
         C21       1.0000    0.60620   0.95820   0.40830   Biso      1.000     C          -0.1114   
         C22       1.0000    0.90900   0.18310   0.74060   Biso      1.000     C          0.696667  
         C23       1.0000    0.04470   0.39360   0.50400   Biso      1.000     C          -0.104441           
         C24       1.0000    0.39360   0.95530   0.75400   Biso      1.000     C          -0.10444  
         C25       1.0000    0.08440   0.18270   0.41990   Biso      1.000     C          0.6865439999999999  
         C26       1.0000    0.19170   0.00220   0.82970   Biso      1.000     C          -0.11265399999999999          
         C27       1.0000    0.80830   0.99780   0.32970   Biso      1.000     C          -0.11265399999999999          
         C28       1.0000    0.18270   0.91560   0.66990   Biso      1.000     C          0.6865439999999999  
         C29       1.0000    0.00200   0.46180   0.58140   Biso      1.000     C          -0.032589           
         C30       1.0000    0.61050   0.99640   0.83290   Biso      1.000     C          0.7094590000000001  
         C31       1.0000    0.95580   0.25950   0.65830   Biso      1.000     C          -0.027518           
         C32       1.0000    0.26040   0.95880   0.75320   Biso      1.000     C          -0.024439           
         C33       1.0000    0.04120   0.26040   0.50320   Biso      1.000     C          -0.024439           
         C34       1.0000    0.00360   0.61050   0.58290   Biso      1.000     C          0.7094590000000001  
         C35       1.0000    0.99780   0.19170   0.57970   Biso      1.000     C          -0.11265399999999999          
         C36       1.0000    0.81730   0.08440   0.16990   Biso      1.000     C          0.6865439999999999  
         H1        1.0000    0.43870   0.92440   0.70290   Biso      1.000     H          0.13100699999999998           
         H2        1.0000    0.56130   0.07560   0.20290   Biso      1.000     H          0.13100699999999998           
         H3        1.0000    0.06960   0.56070   0.21020   Biso      1.000     H          0.130772  
         H4        1.0000    0.43930   0.06960   0.96020   Biso      1.000     H          0.130772  
         H5        1.0000    0.89900   0.99660   0.32890   Biso      1.000     H          0.11276300000000002           
         H6        1.0000    0.56070   0.93040   0.46020   Biso      1.000     H          0.130772  
         H7        1.0000    0.99660   0.10100   0.57890   Biso      1.000     H          0.11276300000000002           
         H8        1.0000    0.93040   0.43930   0.71020   Biso      1.000     H          0.130772  
         H9        1.0000    0.07560   0.43870   0.45290   Biso      1.000     H          0.13100699999999998           
         H10       1.0000    0.10100   0.00340   0.82890   Biso      1.000     H          0.112764  
         H11       1.0000    0.00340   0.89900   0.07890   Biso      1.000     H          0.11276300000000002           
         H12       1.0000    0.92440   0.56130   0.95290   Biso      1.000     H          0.13100699999999998           
         Ho1       1.0000    0.85022   0.84983   0.70535   Biso      1.000     Ho          2.224586  
         Ho2       1.0000    0.14978   0.15017   0.20535   Biso      1.000     Ho          2.224586  
         Ho3       1.0000    0.15017   0.85022   0.45535   Biso      1.000     Ho          2.224586  
         Ho4       1.0000    0.84983   0.14978   0.95535   Biso      1.000     Ho          2.224587  
         O1        1.0000    0.24120   0.90570   0.59430   Biso      1.000     O          -0.707156           
         O2        1.0000    0.66430   0.06610   0.89080   Biso      1.000     O          -0.701118           
         O3        1.0000    0.66290   0.92110   0.77510   Biso      1.000     O          -0.721873           
         O4        1.0000    0.06520   0.89180   0.67960   Biso      1.000     O          -0.719111           
         O5        1.0000    0.12020   0.93210   0.22970   Biso      1.000     O          -0.721909           
         O6        1.0000    0.76120   0.90530   0.56620   Biso      1.000     O          -0.7075899999999999           
         O7        1.0000    0.93390   0.66430   0.64080   Biso      1.000     O          -0.701118           
         O8        1.0000    0.09430   0.24120   0.34430   Biso      1.000     O          -0.707156           
         O9        1.0000    0.07890   0.66290   0.52510   Biso      1.000     O          -0.721873           
         O10       1.0000    0.10820   0.06520   0.42960   Biso      1.000     O          -0.719111           
         O11       1.0000    0.90530   0.23880   0.81620   Biso      1.000     O          -0.7075899999999999           
         O12       1.0000    0.87980   0.06790   0.72970   Biso      1.000     O          -0.72191  
         O13       1.0000    0.06610   0.33570   0.14080   Biso      1.000     O          -0.701118           
         O14       1.0000    0.93210   0.87980   0.47970   Biso      1.000     O          -0.721909           
         O15       1.0000    0.90570   0.75880   0.84430   Biso      1.000     O          -0.707156           
         O16       1.0000    0.89180   0.93480   0.92960   Biso      1.000     O          -0.719111           
         O17       1.0000    0.09470   0.76120   0.31620   Biso      1.000     O          -0.7075899999999999           
         O18       1.0000    0.23880   0.09470   0.06620   Biso      1.000     O          -0.7075899999999999           
         O19       1.0000    0.33570   0.93390   0.39080   Biso      1.000     O          -0.701118           
         O20       1.0000    0.75880   0.09430   0.09430   Biso      1.000     O          -0.707156           
         O21       1.0000    0.33710   0.07890   0.27510   Biso      1.000     O          -0.721873           
         O22       1.0000    0.93480   0.10820   0.17960   Biso      1.000     O          -0.719111           
         O23       1.0000    0.92110   0.33710   0.02510   Biso      1.000     O          -0.721873           
         O24       1.0000    0.06790   0.12020   0.97970   Biso      1.000     O          -0.72191 