
##########################################################################
#               Crystallographic Information Format file
#               Produced by PyCifRW module
#
#  This is a CIF file.  CIF has been adopted by the International
#  Union of Crystallography as the standard for data archiving and
#  transmission.
#
#  For information on this file format, follow the CIF links at
#  http://www.iucr.org
##########################################################################

data_image0

_cell_length_a                          23.482
_cell_length_b                          16.7231
_cell_length_c                          7.7066
_cell_angle_alpha                       90
_cell_angle_beta                        104.716
_cell_angle_gamma                       90
_symmetry_space_group_name_H-M          'P 1'
_symmetry_int_tables_number             1
loop_
  _symmetry_equiv_pos_as_xyz
         'x, y, z' 
loop_
  _atom_site_label
  _atom_site_occupancy
  _atom_site_fract_x
  _atom_site_fract_y
  _atom_site_fract_z
  _atom_site_thermal_displace_type
  _atom_site_B_iso_or_equiv
  _atom_site_type_symbol
  _atom_site_charge
         C1        1.0000    0.70667   0.09600   0.24830   Biso      1.000     C          0.614877  
         C2        1.0000    0.97670   0.27750   0.91250   Biso      1.000     C          -0.133763           
         C3        1.0000    0.89410   0.64290   0.74550   Biso      1.000     C          -0.066528           
         C4        1.0000    0.81090   0.88900   0.21000   Biso      1.000     C          0.635828  
         C5        1.0000    0.94711   0.27940   0.04850   Biso      1.000     C          -0.140943           
         C6        1.0000    0.83870   0.65640   0.02290   Biso      1.000     C          -0.247595           
         C7        1.0000    0.85540   0.72270   0.94150   Biso      1.000     C          0.27846   
         C8        1.0000    0.84731   0.79860   0.00340   Biso      1.000     C          -0.213759           
         C9        1.0000    0.82253   0.80730   0.14740   Biso      1.000     C          -0.013569           
         C10       1.0000    0.80638   0.74140   0.23110   Biso      1.000     C          -0.14221  
         C11       1.0000    0.81405   0.66640   0.16830   Biso      1.000     C          -0.006436           
         C12       1.0000    0.79333   0.59600   0.25170   Biso      1.000     C          0.614877  
         C13       1.0000    0.70667   0.90400   0.74830   Biso      1.000     C          0.614878  
         C14       1.0000    0.68595   0.83360   0.83170   Biso      1.000     C          -0.006441           
         C15       1.0000    0.69362   0.75860   0.76890   Biso      1.000     C          -0.142207           
         C16       1.0000    0.67747   0.69270   0.85260   Biso      1.000     C          -0.013568           
         C17       1.0000    0.65269   0.70140   0.99660   Biso      1.000     C          -0.213759           
         C18       1.0000    0.44711   0.22060   0.54850   Biso      1.000     C          -0.140943           
         C19       1.0000    0.64460   0.77730   0.05850   Biso      1.000     C          0.278458  
         C20       1.0000    0.47670   0.22250   0.41250   Biso      1.000     C          -0.133764           
         C21       1.0000    0.48317   0.15260   0.32180   Biso      1.000     C          0.051963  
         C22       1.0000    0.66130   0.84360   0.97710   Biso      1.000     C          -0.247591           
         C23       1.0000    0.45891   0.08340   0.36740   Biso      1.000     C          -0.144716           
         C24       1.0000    0.42974   0.08210   0.50040   Biso      1.000     C          -0.161007           
         C25       1.0000    0.42410   0.15070   0.59350   Biso      1.000     C          0.110894  
         C26       1.0000    0.68910   0.61100   0.79000   Biso      1.000     C          0.635828  
         C27       1.0000    0.81405   0.33360   0.66830   Biso      1.000     C          -0.006441           
         C28       1.0000    0.39410   0.14290   0.74550   Biso      1.000     C          -0.066529           
         C29       1.0000    0.31090   0.38900   0.21000   Biso      1.000     C          0.635828  
         C30       1.0000    0.33870   0.15640   0.02290   Biso      1.000     C          -0.247594           
         C31       1.0000    0.92410   0.65070   0.59350   Biso      1.000     C          0.110887  
         C32       1.0000    0.35540   0.22270   0.94150   Biso      1.000     C          0.27846   
         C33       1.0000    0.92974   0.58210   0.50040   Biso      1.000     C          -0.161015           
         C34       1.0000    0.95891   0.58340   0.36740   Biso      1.000     C          -0.144708           
         C35       1.0000    0.80638   0.25860   0.73110   Biso      1.000     C          -0.142206           
         C36       1.0000    0.44711   0.77940   0.04850   Biso      1.000     C          -0.140943           
         C37       1.0000    0.47670   0.77750   0.91250   Biso      1.000     C          -0.133764           
         C38       1.0000    0.48317   0.84740   0.82180   Biso      1.000     C          0.051962  
         C39       1.0000    0.82253   0.19270   0.64740   Biso      1.000     C          -0.013568           
         C40       1.0000    0.45891   0.91660   0.86740   Biso      1.000     C          -0.144716           
         C41       1.0000    0.84731   0.20140   0.50340   Biso      1.000     C          -0.213759           
         C42       1.0000    0.42974   0.91790   0.00040   Biso      1.000     C          -0.161007           
         C43       1.0000    0.42410   0.84930   0.09350   Biso      1.000     C          0.110894  
         C44       1.0000    0.85540   0.27730   0.44150   Biso      1.000     C          0.278458  
         C45       1.0000    0.39410   0.85710   0.24550   Biso      1.000     C          -0.066529           
         C46       1.0000    0.31090   0.61100   0.71000   Biso      1.000     C          0.635828  
         C47       1.0000    0.83870   0.34360   0.52290   Biso      1.000     C          -0.247591           
         C48       1.0000    0.33870   0.84360   0.52290   Biso      1.000     C          -0.247594           
         C49       1.0000    0.35540   0.77730   0.44150   Biso      1.000     C          0.27846   
         C50       1.0000    0.34731   0.70140   0.50340   Biso      1.000     C          -0.213759           
         C51       1.0000    0.32253   0.69270   0.64740   Biso      1.000     C          -0.013569           
         C52       1.0000    0.81090   0.11100   0.71000   Biso      1.000     C          0.635828  
         C53       1.0000    0.30638   0.75860   0.73110   Biso      1.000     C          -0.14221  
         C54       1.0000    0.31405   0.83360   0.66830   Biso      1.000     C          -0.006436           
         C55       1.0000    0.29333   0.90400   0.75170   Biso      1.000     C          0.614877  
         C56       1.0000    0.89410   0.35710   0.24550   Biso      1.000     C          -0.066529           
         C57       1.0000    0.92410   0.34930   0.09350   Biso      1.000     C          0.110893  
         C58       1.0000    0.02330   0.27750   0.58750   Biso      1.000     C          -0.133764           
         C59       1.0000    0.92974   0.41790   0.00040   Biso      1.000     C          -0.161016           
         C60       1.0000    0.94711   0.72060   0.54850   Biso      1.000     C          -0.140936           
         C61       1.0000    0.95891   0.41660   0.86740   Biso      1.000     C          -0.144708           
         C62       1.0000    0.97670   0.72250   0.41250   Biso      1.000     C          -0.133765           
         C63       1.0000    0.98317   0.65260   0.32180   Biso      1.000     C          0.051964  
         C64       1.0000    0.98317   0.34740   0.82180   Biso      1.000     C          0.051963  
         C65       1.0000    0.34731   0.29860   0.00340   Biso      1.000     C          -0.213759           
         C66       1.0000    0.60590   0.85710   0.25450   Biso      1.000     C          -0.066529           
         C67       1.0000    0.19362   0.74140   0.26890   Biso      1.000     C          -0.142211           
         C68       1.0000    0.15269   0.79860   0.49660   Biso      1.000     C          -0.213759           
         C69       1.0000    0.17747   0.80730   0.35260   Biso      1.000     C          -0.013568           
         C70       1.0000    0.17747   0.19270   0.85260   Biso      1.000     C          -0.01357  
         C71       1.0000    0.32253   0.30730   0.14740   Biso      1.000     C          -0.01357  
         C72       1.0000    0.18595   0.66640   0.33170   Biso      1.000     C          -0.006437           
         C73       1.0000    0.20667   0.59600   0.24830   Biso      1.000     C          0.614877  
         C74       1.0000    0.15269   0.20140   0.99660   Biso      1.000     C          -0.213759           
         C75       1.0000    0.14460   0.27730   0.05850   Biso      1.000     C          0.278458  
         C76       1.0000    0.16130   0.34360   0.97710   Biso      1.000     C          -0.247592           
         C77       1.0000    0.18910   0.11100   0.79000   Biso      1.000     C          0.635828  
         C78       1.0000    0.10590   0.35710   0.25450   Biso      1.000     C          -0.066528           
         C79       1.0000    0.55289   0.22060   0.95150   Biso      1.000     C          -0.140943           
         C80       1.0000    0.52330   0.22250   0.08750   Biso      1.000     C          -0.133764           
         C81       1.0000    0.51683   0.15260   0.17820   Biso      1.000     C          0.051962  
         C82       1.0000    0.54109   0.08340   0.13260   Biso      1.000     C          -0.144716           
         C83       1.0000    0.07590   0.34930   0.40650   Biso      1.000     C          0.110888  
         C84       1.0000    0.57026   0.08210   0.99960   Biso      1.000     C          -0.161007           
         C85       1.0000    0.57590   0.15070   0.90650   Biso      1.000     C          0.110894  
         C86       1.0000    0.07026   0.41790   0.49960   Biso      1.000     C          -0.161015           
         C87       1.0000    0.60590   0.14290   0.75450   Biso      1.000     C          -0.066529           
         C88       1.0000    0.68910   0.38900   0.29000   Biso      1.000     C          0.635828  
         C89       1.0000    0.04109   0.41660   0.63260   Biso      1.000     C          -0.144708           
         C90       1.0000    0.66130   0.15640   0.47710   Biso      1.000     C          -0.247594           
         C91       1.0000    0.64460   0.22270   0.55850   Biso      1.000     C          0.27846   
         C92       1.0000    0.65269   0.29860   0.49660   Biso      1.000     C          -0.213759           
         C93       1.0000    0.67747   0.30730   0.35260   Biso      1.000     C          -0.013569           
         C94       1.0000    0.01683   0.34740   0.67820   Biso      1.000     C          0.051963  
         C95       1.0000    0.69362   0.24140   0.26890   Biso      1.000     C          -0.14221  
         C96       1.0000    0.68595   0.16640   0.33170   Biso      1.000     C          -0.006436           
         C97       1.0000    0.14460   0.72270   0.55850   Biso      1.000     C          0.278458  
         C98       1.0000    0.16130   0.65640   0.47710   Biso      1.000     C          -0.247592           
         C99       1.0000    0.79333   0.40400   0.75170   Biso      1.000     C          0.614878  
         C100      1.0000    0.02330   0.72250   0.08750   Biso      1.000     C          -0.133763           
         C101      1.0000    0.05289   0.72060   0.95150   Biso      1.000     C          -0.140943           
         C102      1.0000    0.55289   0.77940   0.45150   Biso      1.000     C          -0.140943           
         C103      1.0000    0.19362   0.25860   0.76890   Biso      1.000     C          -0.14221  
         C104      1.0000    0.01683   0.65260   0.17820   Biso      1.000     C          0.051962  
         C105      1.0000    0.54109   0.91660   0.63260   Biso      1.000     C          -0.144719           
         C106      1.0000    0.57026   0.91790   0.49960   Biso      1.000     C          -0.161007           
         C107      1.0000    0.51683   0.84740   0.67820   Biso      1.000     C          0.051965  
         C108      1.0000    0.04109   0.58340   0.13260   Biso      1.000     C          -0.144716           
         C109      1.0000    0.05289   0.27940   0.45150   Biso      1.000     C          -0.140937           
         C110      1.0000    0.31405   0.16640   0.16830   Biso      1.000     C          -0.006441           
         C111      1.0000    0.29333   0.09600   0.25170   Biso      1.000     C          0.614878  
         C112      1.0000    0.10590   0.64290   0.75450   Biso      1.000     C          -0.066529           
         C113      1.0000    0.57590   0.84930   0.40650   Biso      1.000     C          0.110894  
         C114      1.0000    0.18910   0.88900   0.29000   Biso      1.000     C          0.635828  
         C115      1.0000    0.30638   0.24140   0.23110   Biso      1.000     C          -0.142205           
         C116      1.0000    0.07026   0.58210   0.99960   Biso      1.000     C          -0.161007           
         C117      1.0000    0.52330   0.77750   0.58750   Biso      1.000     C          -0.133764           
         C118      1.0000    0.18595   0.33360   0.83170   Biso      1.000     C          -0.006437           
         C119      1.0000    0.20667   0.40400   0.74830   Biso      1.000     C          0.614877  
         C120      1.0000    0.07590   0.65070   0.90650   Biso      1.000     C          0.110894  
         H1        1.0000    0.79050   0.25220   0.82910   Biso      1.000     H          0.134334  
         H2        1.0000    0.85840   0.15660   0.44860   Biso      1.000     H          0.144311  
         H3        1.0000    0.53760   0.96370   0.69340   Biso      1.000     H          0.103085  
         H4        1.0000    0.65630   0.89460   0.01890   Biso      1.000     H          0.128404  
         H5        1.0000    0.03760   0.46370   0.69340   Biso      1.000     H          0.103084  
         H6        1.0000    0.08640   0.46550   0.47190   Biso      1.000     H          0.115686  
         H7        1.0000    0.58640   0.96550   0.47190   Biso      1.000     H          0.115686  
         H8        1.0000    0.64160   0.88860   0.29380   Biso      1.000     H          0.098064  
         H9        1.0000    0.94300   0.23260   0.10920   Biso      1.000     H          0.11871   
         H10       1.0000    0.84370   0.39460   0.48110   Biso      1.000     H          0.128404  
         H11       1.0000    0.20950   0.25220   0.67090   Biso      1.000     H          0.134334  
         H12       1.0000    0.99200   0.22960   0.88280   Biso      1.000     H          0.115177  
         H13       1.0000    0.05700   0.23260   0.39080   Biso      1.000     H          0.118709  
         H14       1.0000    0.96240   0.46370   0.80660   Biso      1.000     H          0.103084  
         H15       1.0000    0.14160   0.15660   0.05140   Biso      1.000     H          0.144311  
         H16       1.0000    0.91360   0.46550   0.02810   Biso      1.000     H          0.115686  
         H17       1.0000    0.50800   0.72960   0.61720   Biso      1.000     H          0.115177  
         H18       1.0000    0.15630   0.39460   0.01890   Biso      1.000     H          0.128404  
         H19       1.0000    0.55700   0.73260   0.39080   Biso      1.000     H          0.11871   
         H20       1.0000    0.92000   0.38420   0.34640   Biso      1.000     H          0.094914  
         H21       1.0000    0.85840   0.38860   0.20620   Biso      1.000     H          0.098064  
         H22       1.0000    0.14160   0.38860   0.29380   Biso      1.000     H          0.098064  
         H23       1.0000    0.64160   0.65660   0.05140   Biso      1.000     H          0.144311  
         H24       1.0000    0.08000   0.38420   0.15360   Biso      1.000     H          0.094914  
         H25       1.0000    0.70950   0.75220   0.67090   Biso      1.000     H          0.134334  
         H26       1.0000    0.58000   0.88420   0.15360   Biso      1.000     H          0.094914  
         H27       1.0000    0.00800   0.22960   0.61720   Biso      1.000     H          0.115177  
         H28       1.0000    0.41360   0.03450   0.52810   Biso      1.000     H          0.115686  
         H29       1.0000    0.84370   0.60540   0.98110   Biso      1.000     H          0.128404  
         H30       1.0000    0.85840   0.84340   0.94860   Biso      1.000     H          0.144311  
         H31       1.0000    0.05700   0.76740   0.89080   Biso      1.000     H          0.11871   
         H32       1.0000    0.79050   0.74780   0.32910   Biso      1.000     H          0.134334  
         H33       1.0000    0.20950   0.74780   0.17090   Biso      1.000     H          0.134334  
         H34       1.0000    0.14160   0.84340   0.55140   Biso      1.000     H          0.144311  
         H35       1.0000    0.15630   0.60540   0.51890   Biso      1.000     H          0.128404  
         H36       1.0000    0.14160   0.61140   0.79380   Biso      1.000     H          0.098064  
         H37       1.0000    0.08000   0.61580   0.65360   Biso      1.000     H          0.094914  
         H38       1.0000    0.44300   0.26740   0.60920   Biso      1.000     H          0.11871   
         H39       1.0000    0.49200   0.27040   0.38280   Biso      1.000     H          0.115177  
         H40       1.0000    0.46240   0.03630   0.30660   Biso      1.000     H          0.103085  
         H41       1.0000    0.08640   0.53450   0.97190   Biso      1.000     H          0.115685  
         H42       1.0000    0.42000   0.11580   0.84640   Biso      1.000     H          0.094915  
         H43       1.0000    0.35840   0.11140   0.70620   Biso      1.000     H          0.098064  
         H44       1.0000    0.34370   0.10540   0.98110   Biso      1.000     H          0.128404  
         H45       1.0000    0.35840   0.34340   0.94860   Biso      1.000     H          0.144311  
         H46       1.0000    0.29050   0.24780   0.32910   Biso      1.000     H          0.134334  
         H47       1.0000    0.03760   0.53630   0.19340   Biso      1.000     H          0.103085  
         H48       1.0000    0.85840   0.61140   0.70620   Biso      1.000     H          0.098064  
         H49       1.0000    0.92000   0.61580   0.84640   Biso      1.000     H          0.094914  
         H50       1.0000    0.00800   0.77040   0.11720   Biso      1.000     H          0.115177  
         H51       1.0000    0.96240   0.53630   0.30660   Biso      1.000     H          0.103084  
         H52       1.0000    0.70950   0.24780   0.17090   Biso      1.000     H          0.134334  
         H53       1.0000    0.64160   0.34340   0.55140   Biso      1.000     H          0.144311  
         H54       1.0000    0.65630   0.10540   0.51890   Biso      1.000     H          0.128404  
         H55       1.0000    0.64160   0.11140   0.79380   Biso      1.000     H          0.098064  
         H56       1.0000    0.44300   0.73260   0.10920   Biso      1.000     H          0.11871   
         H57       1.0000    0.49200   0.72960   0.88280   Biso      1.000     H          0.115177  
         H58       1.0000    0.46240   0.96370   0.80660   Biso      1.000     H          0.103085  
         H59       1.0000    0.41360   0.96550   0.02810   Biso      1.000     H          0.115685  
         H60       1.0000    0.42000   0.88420   0.34640   Biso      1.000     H          0.094914  
         H61       1.0000    0.91360   0.53450   0.52810   Biso      1.000     H          0.115686  
         H62       1.0000    0.34370   0.89460   0.48110   Biso      1.000     H          0.128404  
         H63       1.0000    0.35840   0.65660   0.44860   Biso      1.000     H          0.144311  
         H64       1.0000    0.35840   0.88860   0.20620   Biso      1.000     H          0.098064  
         H65       1.0000    0.58000   0.11580   0.65360   Biso      1.000     H          0.094914  
         H66       1.0000    0.99200   0.77040   0.38280   Biso      1.000     H          0.115177  
         H67       1.0000    0.94300   0.76740   0.60920   Biso      1.000     H          0.118709  
         H68       1.0000    0.29050   0.75220   0.82910   Biso      1.000     H          0.134334  
         H69       1.0000    0.50800   0.27040   0.11720   Biso      1.000     H          0.115177  
         H70       1.0000    0.55700   0.26740   0.89080   Biso      1.000     H          0.11871   
         H71       1.0000    0.53760   0.03630   0.19340   Biso      1.000     H          0.103085  
         H72       1.0000    0.58640   0.03450   0.97190   Biso      1.000     H          0.115685  
         O1        1.0000    0.70146   0.39430   0.14170   Biso      1.000     O          -0.545309           
         O2        1.0000    0.70329   0.02659   0.31400   Biso      1.000     O          -0.620221           
         O3        1.0000    0.62001   0.21970   0.70120   Biso      1.000     O          -0.188045           
         O4        1.0000    0.18556   0.05271   0.89110   Biso      1.000     O          -0.595927           
         O5        1.0000    0.62001   0.78030   0.20120   Biso      1.000     O          -0.188045           
         O6        1.0000    0.68556   0.55271   0.89110   Biso      1.000     O          -0.595927           
         O7        1.0000    0.70146   0.60570   0.64170   Biso      1.000     O          -0.545309           
         O8        1.0000    0.70329   0.97341   0.81400   Biso      1.000     O          -0.620221           
         O9        1.0000    0.72702   0.89256   0.61550   Biso      1.000     O          -0.52652  
         O10       1.0000    0.68556   0.44729   0.39110   Biso      1.000     O          -0.595927           
         O11       1.0000    0.72702   0.10744   0.11550   Biso      1.000     O          -0.52652  
         O12       1.0000    0.31444   0.55271   0.60890   Biso      1.000     O          -0.595927           
         O13       1.0000    0.20329   0.52659   0.31400   Biso      1.000     O          -0.620222           
         O14       1.0000    0.37999   0.78030   0.29880   Biso      1.000     O          -0.188045           
         O15       1.0000    0.22702   0.39256   0.61550   Biso      1.000     O          -0.52652  
         O16       1.0000    0.29671   0.97341   0.68600   Biso      1.000     O          -0.620221           
         O17       1.0000    0.27298   0.89256   0.88450   Biso      1.000     O          -0.52652  
         O18       1.0000    0.12001   0.28030   0.20120   Biso      1.000     O          -0.188045           
         O19       1.0000    0.87999   0.71970   0.79880   Biso      1.000     O          -0.188045           
         O20       1.0000    0.81444   0.94729   0.10890   Biso      1.000     O          -0.595927           
         O21       1.0000    0.79854   0.89430   0.35830   Biso      1.000     O          -0.545309           
         O22       1.0000    0.77298   0.60744   0.38450   Biso      1.000     O          -0.52652  
         O23       1.0000    0.77298   0.39256   0.88450   Biso      1.000     O          -0.52652  
         O24       1.0000    0.79671   0.47341   0.68600   Biso      1.000     O          -0.620221           
         O25       1.0000    0.79854   0.10570   0.85830   Biso      1.000     O          -0.545309           
         O26       1.0000    0.81444   0.05271   0.60890   Biso      1.000     O          -0.595927           
         O27       1.0000    0.87999   0.28030   0.29880   Biso      1.000     O          -0.188045           
         O28       1.0000    0.20329   0.47341   0.81400   Biso      1.000     O          -0.620221           
         O29       1.0000    0.37999   0.21970   0.79880   Biso      1.000     O          -0.188045           
         O30       1.0000    0.31444   0.44729   0.10890   Biso      1.000     O          -0.595927           
         O31       1.0000    0.29854   0.39430   0.35830   Biso      1.000     O          -0.545309           
         O32       1.0000    0.29671   0.02659   0.18600   Biso      1.000     O          -0.620221           
         O33       1.0000    0.27298   0.10744   0.38450   Biso      1.000     O          -0.52652  
         O34       1.0000    0.29854   0.60570   0.85830   Biso      1.000     O          -0.545309           
         O35       1.0000    0.20146   0.10570   0.64170   Biso      1.000     O          -0.545309           
         O36       1.0000    0.12001   0.71970   0.70120   Biso      1.000     O          -0.188044           
         O37       1.0000    0.18556   0.94729   0.39110   Biso      1.000     O          -0.595927           
         O38       1.0000    0.20146   0.89430   0.14170   Biso      1.000     O          -0.545309           
         O39       1.0000    0.22702   0.60744   0.11550   Biso      1.000     O          -0.52652  
         O40       1.0000    0.79671   0.52659   0.18600   Biso      1.000     O          -0.620221           
         Zn1       1.0000    0.73575   0.53195   0.50882   Biso      1.000     Zn          1.001842  
         Zn2       1.0000    0.73575   0.46805   0.00882   Biso      1.000     Zn          1.001843  
         Zn3       1.0000    0.23575   0.96805   0.00882   Biso      1.000     Zn          1.001843  
         Zn4       1.0000    0.23575   0.03195   0.50882   Biso      1.000     Zn          1.001843  
         Zn5       1.0000    0.26425   0.53195   0.99118   Biso      1.000     Zn          1.001843  
         Zn6       1.0000    0.76425   0.03195   0.99118   Biso      1.000     Zn          1.001843  
         Zn7       1.0000    0.76425   0.96805   0.49118   Biso      1.000     Zn          1.001843  
         Zn8       1.0000    0.26425   0.46805   0.49118   Biso      1.000     Zn          1.001843 