
##########################################################################
#               Crystallographic Information Format file
#               Produced by PyCifRW module
#
#  This is a CIF file.  CIF has been adopted by the International
#  Union of Crystallography as the standard for data archiving and
#  transmission.
#
#  For information on this file format, follow the CIF links at
#  http://www.iucr.org
##########################################################################

data_image0

_cell_length_a                          13.7442
_cell_length_b                          14.2887
_cell_length_c                          14.1178
_cell_angle_alpha                       90
_cell_angle_beta                        104.912
_cell_angle_gamma                       90
_symmetry_space_group_name_H-M          'P 1'
_symmetry_int_tables_number             1
loop_
  _symmetry_equiv_pos_as_xyz
         'x, y, z' 
loop_
  _atom_site_label
  _atom_site_occupancy
  _atom_site_fract_x
  _atom_site_fract_y
  _atom_site_fract_z
  _atom_site_thermal_displace_type
  _atom_site_B_iso_or_equiv
  _atom_site_type_symbol
  _atom_site_charge
         C1        1.0000    0.72424   0.77562   0.61372   Biso      1.000     C          0.665213  
         C2        1.0000    0.30124   0.38875   0.78197   Biso      1.000     C          -0.058339           
         C3        1.0000    0.77990   0.22331   0.79475   Biso      1.000     C          -0.07403799999999999          
         C4        1.0000    0.77576   0.27562   0.88628   Biso      1.000     C          0.665213  
         C5        1.0000    0.72010   0.72331   0.70525   Biso      1.000     C          -0.07403799999999999          
         C6        1.0000    0.69876   0.61125   0.21803   Biso      1.000     C          -0.058339           
         C7        1.0000    0.72600   0.48660   0.10118   Biso      1.000     C          0.6243    
         C8        1.0000    0.66447   0.56270   0.13090   Biso      1.000     C          -0.048285           
         C9        1.0000    0.16447   0.93730   0.63090   Biso      1.000     C          -0.048285           
         C10       1.0000    0.57352   0.59012   0.06769   Biso      1.000     C          0.070244  
         C11       1.0000    0.70777   0.62910   0.86931   Biso      1.000     C          0.049555  
         C12       1.0000    0.54939   0.70290   0.17407   Biso      1.000     C          0.09043999999999999           
         C13       1.0000    0.64041   0.68258   0.24047   Biso      1.000     C          -0.053285           
         C14       1.0000    0.67544   0.74052   0.33187   Biso      1.000     C          0.665137  
         C15       1.0000    0.07352   0.90988   0.56769   Biso      1.000     C          0.070244  
         C16       1.0000    0.22424   0.72438   0.11372   Biso      1.000     C          0.665213  
         C17       1.0000    0.22010   0.77669   0.20525   Biso      1.000     C          -0.074039           
         C18       1.0000    0.13576   0.77390   0.24180   Biso      1.000     C          0.059546  
         C19       1.0000    0.80243   0.67169   0.75719   Biso      1.000     C          -0.088433           
         C20       1.0000    0.20777   0.87090   0.36931   Biso      1.000     C          0.049556  
         C21       1.0000    0.88355   0.56724   0.90049   Biso      1.000     C          0.672118  
         C22       1.0000    0.29646   0.87721   0.34012   Biso      1.000     C          -0.06425800000000001          
         C23       1.0000    0.38355   0.93276   0.40049   Biso      1.000     C          0.672118  
         C24       1.0000    0.30243   0.82831   0.25719   Biso      1.000     C          -0.088431           
         C25       1.0000    0.79646   0.62279   0.84012   Biso      1.000     C          -0.064256           
         C26       1.0000    0.17544   0.75948   0.83187   Biso      1.000     C          0.665137  
         C27       1.0000    0.27400   0.51340   0.89882   Biso      1.000     C          0.6243    
         C28       1.0000    0.14041   0.81742   0.74047   Biso      1.000     C          -0.053287           
         C29       1.0000    0.33553   0.43730   0.86910   Biso      1.000     C          -0.048285           
         C30       1.0000    0.42648   0.40988   0.93231   Biso      1.000     C          0.070244  
         C31       1.0000    0.77400   0.98660   0.39882   Biso      1.000     C          0.6243    
         C32       1.0000    0.83553   0.06270   0.36910   Biso      1.000     C          -0.048285           
         C33       1.0000    0.63576   0.72610   0.74180   Biso      1.000     C          0.059546  
         C34       1.0000    0.92648   0.09012   0.43231   Biso      1.000     C          0.070244  
         C35       1.0000    0.95061   0.20290   0.32593   Biso      1.000     C          0.09043999999999999           
         C36       1.0000    0.85959   0.18258   0.25953   Biso      1.000     C          -0.053287           
         C37       1.0000    0.82456   0.24052   0.16813   Biso      1.000     C          0.665137  
         C38       1.0000    0.80124   0.11125   0.28197   Biso      1.000     C          -0.058337           
         C39       1.0000    0.69757   0.17169   0.74281   Biso      1.000     C          -0.088433           
         C40       1.0000    0.61645   0.06724   0.59951   Biso      1.000     C          0.672118  
         C41       1.0000    0.27576   0.22438   0.38628   Biso      1.000     C          0.665213  
         C42       1.0000    0.86424   0.22610   0.75820   Biso      1.000     C          0.059546  
         C43       1.0000    0.27990   0.27669   0.29475   Biso      1.000     C          -0.074039           
         C44       1.0000    0.70354   0.12279   0.65988   Biso      1.000     C          -0.064256           
         C45       1.0000    0.29223   0.37090   0.13069   Biso      1.000     C          0.049556  
         C46       1.0000    0.19876   0.88875   0.71803   Biso      1.000     C          -0.058337           
         C47       1.0000    0.20354   0.37721   0.15988   Biso      1.000     C          -0.06425800000000001          
         C48       1.0000    0.11645   0.43276   0.09951   Biso      1.000     C          0.672118  
         C49       1.0000    0.19757   0.32831   0.24281   Biso      1.000     C          -0.088431           
         C50       1.0000    0.79223   0.12910   0.63069   Biso      1.000     C          0.049555  
         C51       1.0000    0.32456   0.25948   0.66813   Biso      1.000     C          0.665137  
         C52       1.0000    0.35959   0.31742   0.75953   Biso      1.000     C          -0.053285           
         C53       1.0000    0.45061   0.29710   0.82593   Biso      1.000     C          0.09043999999999999           
         C54       1.0000    0.22600   0.01340   0.60118   Biso      1.000     C          0.6243    
         C55       1.0000    0.36424   0.27390   0.25820   Biso      1.000     C          0.059546  
         C56       1.0000    0.04939   0.79710   0.67407   Biso      1.000     C          0.09043999999999999           
         H1        1.0000    0.58080   0.76130   0.70810   Biso      1.000     H          0.10033099999999999           
         H2        1.0000    0.26030   0.90390   0.76090   Biso      1.000     H          0.135103  
         H3        1.0000    0.86130   0.67000   0.73630   Biso      1.000     H          0.12175   
         H4        1.0000    0.50930   0.74950   0.19020   Biso      1.000     H          0.10583499999999998           
         H5        1.0000    0.55160   0.55880   0.00830   Biso      1.000     H          0.092261  
         H6        1.0000    0.91920   0.26130   0.79190   Biso      1.000     H          0.10033099999999999           
         H7        1.0000    0.79720   0.09540   0.57580   Biso      1.000     H          0.086846  
         H8        1.0000    0.63870   0.17000   0.76370   Biso      1.000     H          0.12175   
         H9        1.0000    0.99070   0.24950   0.30980   Biso      1.000     H          0.10583499999999998           
         H10       1.0000    0.94840   0.05880   0.49170   Biso      1.000     H          0.092261  
         H11       1.0000    0.70280   0.59540   0.92420   Biso      1.000     H          0.086846  
         H12       1.0000    0.76030   0.59610   0.26090   Biso      1.000     H          0.135103  
         H13       1.0000    0.73970   0.09610   0.23910   Biso      1.000     H          0.135103  
         H14       1.0000    0.29720   0.40460   0.07580   Biso      1.000     H          0.086846  
         H15       1.0000    0.13870   0.33000   0.26370   Biso      1.000     H          0.12175   
         H16       1.0000    0.23970   0.40390   0.73910   Biso      1.000     H          0.135103  
         H17       1.0000    0.44840   0.44120   0.99170   Biso      1.000     H          0.092261  
         H18       1.0000    0.49070   0.25050   0.80980   Biso      1.000     H          0.10583499999999998           
         H19       1.0000    0.08080   0.73870   0.20810   Biso      1.000     H          0.10033099999999999           
         H20       1.0000    0.20280   0.90460   0.42420   Biso      1.000     H          0.086846  
         H21       1.0000    0.36130   0.83000   0.23630   Biso      1.000     H          0.12175   
         H22       1.0000    0.41920   0.23870   0.29190   Biso      1.000     H          0.10033099999999999           
         H23       1.0000    0.05160   0.94120   0.50830   Biso      1.000     H          0.092261  
         H24       1.0000    0.00930   0.75050   0.69020   Biso      1.000     H          0.10583499999999998           
         Mg1       1.0000    0.12529   0.20877   0.51738   Biso      1.000     Mg          1.4048120000000002  
         Mg2       1.0000    0.11659   0.59888   0.94858   Biso      1.000     Mg          1.4012    
         Mg3       1.0000    0.87471   0.79123   0.48262   Biso      1.000     Mg          1.4048120000000002  
         Mg4       1.0000    0.62529   0.29123   0.01738   Biso      1.000     Mg          1.4048120000000002  
         Mg5       1.0000    0.88341   0.40112   0.05142   Biso      1.000     Mg          1.4012    
         Mg6       1.0000    0.37471   0.70877   0.98262   Biso      1.000     Mg          1.4048120000000002  
         Mg7       1.0000    0.38341   0.09888   0.55142   Biso      1.000     Mg          1.4012    
         Mg8       1.0000    0.61659   0.90112   0.44858   Biso      1.000     Mg          1.4012    
         N1        1.0000    0.98396   0.15893   0.41229   Biso      1.000     N          -0.349518           
         N2        1.0000    0.48396   0.34107   0.91229   Biso      1.000     N          -0.349518           
         N3        1.0000    0.12884   0.81887   0.32265   Biso      1.000     N          -0.318363           
         N4        1.0000    0.87116   0.18113   0.67735   Biso      1.000     N          -0.318363           
         N5        1.0000    0.01604   0.84107   0.58771   Biso      1.000     N          -0.349518           
         N6        1.0000    0.51604   0.65893   0.08771   Biso      1.000     N          -0.349518           
         N7        1.0000    0.62884   0.68113   0.82265   Biso      1.000     N          -0.318363           
         N8        1.0000    0.37116   0.31887   0.17735   Biso      1.000     N          -0.318363           
         O1        1.0000    0.18032   0.50920   0.86580   Biso      1.000     O          -0.589544           
         O2        1.0000    0.31728   0.57459   0.95772   Biso      1.000     O          -0.714056           
         O3        1.0000    0.23710   0.27378   0.61779   Biso      1.000     O          -0.699917           
         O4        1.0000    0.38565   0.20130   0.65092   Biso      1.000     O          -0.618053           
         O5        1.0000    0.03124   0.41132   0.10807   Biso      1.000     O          -0.660251           
         O6        1.0000    0.13693   0.49403   0.04613   Biso      1.000     O          -0.663239           
         O7        1.0000    0.35618   0.18963   0.43698   Biso      1.000     O          -0.6366109999999999           
         O8        1.0000    0.19145   0.22052   0.40448   Biso      1.000     O          -0.7085020000000001           
         O9        1.0000    0.68032   0.99080   0.36580   Biso      1.000     O          -0.589544           
         O10       1.0000    0.96876   0.58868   0.89193   Biso      1.000     O          -0.660251           
         O11       1.0000    0.73710   0.22622   0.11779   Biso      1.000     O          -0.699917           
         O12       1.0000    0.61435   0.79870   0.34908   Biso      1.000     O          -0.618053           
         O13       1.0000    0.76290   0.72622   0.38221   Biso      1.000     O          -0.699917           
         O14       1.0000    0.68272   0.42541   0.04228   Biso      1.000     O          -0.714056           
         O15       1.0000    0.81968   0.49080   0.13420   Biso      1.000     O          -0.589544           
         O16       1.0000    0.64382   0.81037   0.56302   Biso      1.000     O          -0.6366109999999999           
         O17       1.0000    0.80855   0.77948   0.59552   Biso      1.000     O          -0.7085020000000001           
         O18       1.0000    0.31968   0.00920   0.63420   Biso      1.000     O          -0.589544           
         O19       1.0000    0.18272   0.07459   0.54228   Biso      1.000     O          -0.714056           
         O20       1.0000    0.26290   0.77378   0.88221   Biso      1.000     O          -0.699917           
         O21       1.0000    0.11435   0.70130   0.84908   Biso      1.000     O          -0.618052           
         O22       1.0000    0.46876   0.91132   0.39193   Biso      1.000     O          -0.660251           
         O23       1.0000    0.36307   0.99403   0.45387   Biso      1.000     O          -0.663239           
         O24       1.0000    0.14382   0.68963   0.06302   Biso      1.000     O          -0.6366109999999999           
         O25       1.0000    0.30855   0.72052   0.09552   Biso      1.000     O          -0.7085020000000001           
         O26       1.0000    0.86307   0.50597   0.95387   Biso      1.000     O          -0.663239           
         O27       1.0000    0.85618   0.31037   0.93698   Biso      1.000     O          -0.6366109999999999           
         O28       1.0000    0.63693   0.00597   0.54613   Biso      1.000     O          -0.663239           
         O29       1.0000    0.53124   0.08868   0.60807   Biso      1.000     O          -0.660251           
         O30       1.0000    0.88565   0.29870   0.15092   Biso      1.000     O          -0.618052           
         O31       1.0000    0.81728   0.92541   0.45772   Biso      1.000     O          -0.714056           
         O32       1.0000    0.69145   0.27948   0.90448   Biso      1.000     O          -0.7085020000000001 