
##########################################################################
#               Crystallographic Information Format file
#               Produced by PyCifRW module
#
#  This is a CIF file.  CIF has been adopted by the International
#  Union of Crystallography as the standard for data archiving and
#  transmission.
#
#  For information on this file format, follow the CIF links at
#  http://www.iucr.org
##########################################################################

data_image0

_cell_length_a                          11.1929
_cell_length_b                          12.3475
_cell_length_c                          28.6734
_cell_angle_alpha                       98.816
_cell_angle_beta                        90
_cell_angle_gamma                       90
_symmetry_space_group_name_H-M          'P 1'
_symmetry_int_tables_number             1
loop_
  _symmetry_equiv_pos_as_xyz
         'x, y, z' 
loop_
  _atom_site_label
  _atom_site_occupancy
  _atom_site_fract_x
  _atom_site_fract_y
  _atom_site_fract_z
  _atom_site_thermal_displace_type
  _atom_site_B_iso_or_equiv
  _atom_site_type_symbol
  _atom_site_charge
         C1        1.0000    0.67560   0.63086   0.22871   Biso      1.000     C          0.659747  
         C2        1.0000    0.59662   0.84630   0.66405   Biso      1.000     C          -0.063907           
         C3        1.0000    0.48519   0.82352   0.64411   Biso      1.000     C          0.084859  
         C4        1.0000    0.53768   0.74769   0.72575   Biso      1.000     C          -0.071375           
         C5        1.0000    0.55549   0.71055   0.77297   Biso      1.000     C          0.642945  
         C6        1.0000    0.71846   0.48875   0.82890   Biso      1.000     C          0.626223  
         C7        1.0000    0.10450   0.14290   0.46526   Biso      1.000     C          0.070739  
         C8        1.0000    0.10710   0.10110   0.54010   Biso      1.000     C          0.060133000000000006          
         C9        1.0000    0.98650   0.12641   0.54725   Biso      1.000     C          -0.085949           
         C10       1.0000    0.92500   0.16321   0.51072   Biso      1.000     C          -0.078334           
         C11       1.0000    0.98370   0.16880   0.46846   Biso      1.000     C          -0.07094  
         C12       1.0000    0.91460   0.19740   0.42690   Biso      1.000     C          0.610104  
         C13       1.0000    0.92460   0.10904   0.59238   Biso      1.000     C          0.6808930000000001  
         C14       1.0000    0.62423   0.80681   0.70555   Biso      1.000     C          -0.06279900000000001          
         C15       1.0000    0.68436   0.91756   0.64263   Biso      1.000     C          0.665261  
         C16       1.0000    0.91190   0.39010   0.83745   Biso      1.000     C          0.085906  
         C17       1.0000    0.80041   0.39222   0.81642   Biso      1.000     C          -0.04893  
         C18       1.0000    0.76970   0.30560   0.78153   Biso      1.000     C          -0.06366799999999999          
         C19       1.0000    0.85060   0.22110   0.76909   Biso      1.000     C          -0.068605           
         C20       1.0000    0.96070   0.22610   0.79238   Biso      1.000     C          0.081964  
         C21       1.0000    0.92930   0.77429   0.79757   Biso      1.000     C          0.078345  
         C22       1.0000    0.12423   0.69319   0.79445   Biso      1.000     C          -0.06279900000000001          
         C23       1.0000    0.09662   0.65370   0.83595   Biso      1.000     C          -0.063907           
         C24       1.0000    0.98519   0.67648   0.85589   Biso      1.000     C          0.084859  
         C25       1.0000    0.03768   0.75231   0.77425   Biso      1.000     C          -0.071374           
         C26       1.0000    0.05549   0.78945   0.72703   Biso      1.000     C          0.642944  
         C27       1.0000    0.21846   0.01125   0.67110   Biso      1.000     C          0.626223  
         C28       1.0000    0.82440   0.13086   0.72871   Biso      1.000     C          0.659747  
         C29       1.0000    0.60450   0.35710   0.03474   Biso      1.000     C          0.070739  
         C30       1.0000    0.42930   0.72571   0.70243   Biso      1.000     C          0.078347  
         C31       1.0000    0.64940   0.72110   0.26909   Biso      1.000     C          -0.068605           
         C32       1.0000    0.31564   0.08244   0.35737   Biso      1.000     C          0.665261  
         C33       1.0000    0.17560   0.86914   0.27129   Biso      1.000     C          0.659747  
         C34       1.0000    0.08810   0.60990   0.16255   Biso      1.000     C          0.085906  
         C35       1.0000    0.19959   0.60778   0.18358   Biso      1.000     C          -0.04893  
         C36       1.0000    0.23030   0.69440   0.21847   Biso      1.000     C          -0.06366799999999999          
         C37       1.0000    0.14940   0.77890   0.23091   Biso      1.000     C          -0.068605           
         C38       1.0000    0.03930   0.77390   0.20762   Biso      1.000     C          0.081964  
         C39       1.0000    0.07070   0.22571   0.20243   Biso      1.000     C          0.078345  
         C40       1.0000    0.87577   0.30681   0.20555   Biso      1.000     C          -0.06279900000000001          
         C41       1.0000    0.90338   0.34630   0.16405   Biso      1.000     C          -0.063907           
         C42       1.0000    0.01481   0.32352   0.14411   Biso      1.000     C          0.084859  
         C43       1.0000    0.96232   0.24769   0.22575   Biso      1.000     C          -0.071374           
         C44       1.0000    0.53930   0.72610   0.29238   Biso      1.000     C          0.081964  
         C45       1.0000    0.94451   0.21055   0.27297   Biso      1.000     C          0.642944  
         C46       1.0000    0.39550   0.64290   0.96526   Biso      1.000     C          0.070739  
         C47       1.0000    0.39290   0.60110   0.04010   Biso      1.000     C          0.060133000000000006          
         C48       1.0000    0.51350   0.62641   0.04725   Biso      1.000     C          -0.085949           
         C49       1.0000    0.57500   0.66321   0.01072   Biso      1.000     C          -0.078334           
         C50       1.0000    0.51630   0.66880   0.96846   Biso      1.000     C          -0.07094  
         C51       1.0000    0.58540   0.69740   0.92690   Biso      1.000     C          0.610104  
         C52       1.0000    0.57540   0.60904   0.09238   Biso      1.000     C          0.6808930000000001  
         C53       1.0000    0.81564   0.41756   0.14263   Biso      1.000     C          0.665261  
         C54       1.0000    0.01630   0.83120   0.53154   Biso      1.000     C          -0.07094  
         C55       1.0000    0.58810   0.89010   0.33745   Biso      1.000     C          0.085906  
         C56       1.0000    0.69959   0.89222   0.31642   Biso      1.000     C          -0.04893  
         C57       1.0000    0.73030   0.80560   0.28153   Biso      1.000     C          -0.06366799999999999          
         C58       1.0000    0.78154   0.98875   0.32890   Biso      1.000     C          0.626223  
         C59       1.0000    0.60710   0.39890   0.95990   Biso      1.000     C          0.060133000000000006          
         C60       1.0000    0.48650   0.37359   0.95275   Biso      1.000     C          -0.085949           
         C61       1.0000    0.42500   0.33679   0.98928   Biso      1.000     C          -0.078334           
         C62       1.0000    0.57070   0.27429   0.29757   Biso      1.000     C          0.078345  
         C63       1.0000    0.37577   0.19319   0.29445   Biso      1.000     C          -0.06279900000000001          
         C64       1.0000    0.40338   0.15370   0.33595   Biso      1.000     C          -0.063907           
         C65       1.0000    0.51481   0.17648   0.35589   Biso      1.000     C          0.084859  
         C66       1.0000    0.46232   0.25231   0.27425   Biso      1.000     C          -0.071374           
         C67       1.0000    0.44451   0.28945   0.22703   Biso      1.000     C          0.642944  
         C68       1.0000    0.28154   0.51125   0.17110   Biso      1.000     C          0.626223  
         C69       1.0000    0.89550   0.85710   0.53474   Biso      1.000     C          0.070739  
         C70       1.0000    0.89290   0.89890   0.45990   Biso      1.000     C          0.060133000000000006          
         C71       1.0000    0.01350   0.87359   0.45275   Biso      1.000     C          -0.085949           
         C72       1.0000    0.07500   0.83679   0.48928   Biso      1.000     C          -0.078334           
         C73       1.0000    0.07540   0.89096   0.40762   Biso      1.000     C          0.6808930000000001  
         C74       1.0000    0.08540   0.80260   0.57310   Biso      1.000     C          0.610104  
         C75       1.0000    0.46070   0.27390   0.70762   Biso      1.000     C          0.081964  
         C76       1.0000    0.48370   0.33120   0.03154   Biso      1.000     C          -0.07094  
         C77       1.0000    0.41460   0.30260   0.07310   Biso      1.000     C          0.610104  
         C78       1.0000    0.42460   0.39096   0.90762   Biso      1.000     C          0.6808930000000001  
         C79       1.0000    0.18436   0.58244   0.85737   Biso      1.000     C          0.665261  
         C80       1.0000    0.32440   0.36914   0.77129   Biso      1.000     C          0.659747  
         C81       1.0000    0.41190   0.10990   0.66255   Biso      1.000     C          0.085906  
         C82       1.0000    0.30041   0.10778   0.68358   Biso      1.000     C          -0.04893  
         C83       1.0000    0.26970   0.19440   0.71847   Biso      1.000     C          -0.06366799999999999          
         C84       1.0000    0.35060   0.27890   0.73091   Biso      1.000     C          -0.068605           
         H1        1.0000    0.20050   0.68010   0.78020   Biso      1.000     H          0.13652999999999998           
         H2        1.0000    0.96610   0.64760   0.88380   Biso      1.000     H          0.104928  
         H3        1.0000    0.64490   0.35200   0.06350   Biso      1.000     H          0.09915299999999999           
         H4        1.0000    0.64960   0.42490   0.93520   Biso      1.000     H          0.095899  
         H5        1.0000    0.34360   0.31560   0.98540   Biso      1.000     H          0.126825  
         H6        1.0000    0.85510   0.85200   0.56350   Biso      1.000     H          0.09915299999999999           
         H7        1.0000    0.19410   0.19560   0.73360   Biso      1.000     H          0.12689   
         H8        1.0000    0.51600   0.33200   0.71590   Biso      1.000     H          0.102474  
         H9        1.0000    0.62800   0.31750   0.28430   Biso      1.000     H          0.10135   
         H10       1.0000    0.87200   0.81750   0.78430   Biso      1.000     H          0.10135   
         H11       1.0000    0.43270   0.05080   0.63870   Biso      1.000     H          0.09895599999999999           
         H12       1.0000    0.01600   0.16800   0.78410   Biso      1.000     H          0.102474  
         H13       1.0000    0.69410   0.30440   0.76640   Biso      1.000     H          0.12689   
         H14       1.0000    0.93270   0.44920   0.86130   Biso      1.000     H          0.09895599999999999           
         H15       1.0000    0.85040   0.92490   0.43520   Biso      1.000     H          0.095899  
         H16       1.0000    0.15640   0.81560   0.48540   Biso      1.000     H          0.126825  
         H17       1.0000    0.06730   0.55080   0.13870   Biso      1.000     H          0.09895599999999999           
         H18       1.0000    0.30590   0.69560   0.23360   Biso      1.000     H          0.12689   
         H19       1.0000    0.98400   0.83200   0.21590   Biso      1.000     H          0.102474  
         H20       1.0000    0.12800   0.18250   0.21570   Biso      1.000     H          0.10135   
         H21       1.0000    0.79950   0.31990   0.21980   Biso      1.000     H          0.13652999999999998           
         H22       1.0000    0.03390   0.35240   0.11620   Biso      1.000     H          0.104928  
         H23       1.0000    0.35510   0.64800   0.93650   Biso      1.000     H          0.09915299999999999           
         H24       1.0000    0.53390   0.14760   0.38380   Biso      1.000     H          0.104928  
         H25       1.0000    0.35040   0.57510   0.06480   Biso      1.000     H          0.095899  
         H26       1.0000    0.56730   0.94920   0.36130   Biso      1.000     H          0.09895599999999999           
         H27       1.0000    0.80590   0.80440   0.26640   Biso      1.000     H          0.12689   
         H28       1.0000    0.48400   0.66800   0.28410   Biso      1.000     H          0.102474  
         H29       1.0000    0.29950   0.18010   0.28020   Biso      1.000     H          0.13652999999999998           
         H30       1.0000    0.70050   0.81990   0.71980   Biso      1.000     H          0.13652999999999998           
         H31       1.0000    0.46610   0.85240   0.61620   Biso      1.000     H          0.104928  
         H32       1.0000    0.14490   0.14800   0.43650   Biso      1.000     H          0.09915299999999999           
         H33       1.0000    0.14960   0.07510   0.56480   Biso      1.000     H          0.095899  
         H34       1.0000    0.84360   0.18440   0.51460   Biso      1.000     H          0.126825  
         H35       1.0000    0.65640   0.68440   0.01460   Biso      1.000     H          0.126825  
         H36       1.0000    0.37200   0.68250   0.71570   Biso      1.000     H          0.10135   
         Mg1       1.0000    0.17327   0.33707   0.85988   Biso      1.000     Mg          1.4063430000000001  
         Mg2       1.0000    0.21020   0.77260   0.64158   Biso      1.000     Mg          1.305183  
         Mg3       1.0000    0.04225   0.05341   0.33391   Biso      1.000     Mg          1.412657  
         Mg4       1.0000    0.32673   0.83707   0.35988   Biso      1.000     Mg          1.4063430000000001  
         Mg5       1.0000    0.71020   0.72740   0.85842   Biso      1.000     Mg          1.305183  
         Mg6       1.0000    0.54225   0.44659   0.16609   Biso      1.000     Mg          1.412657  
         Mg7       1.0000    0.82673   0.66293   0.14012   Biso      1.000     Mg          1.4063430000000001  
         Mg8       1.0000    0.78980   0.22740   0.35842   Biso      1.000     Mg          1.305183  
         Mg9       1.0000    0.95775   0.94659   0.66609   Biso      1.000     Mg          1.412657  
         Mg10      1.0000    0.67327   0.16293   0.64012   Biso      1.000     Mg          1.4063430000000001  
         Mg11      1.0000    0.28980   0.27260   0.14158   Biso      1.000     Mg          1.305183  
         Mg12      1.0000    0.45775   0.55341   0.83391   Biso      1.000     Mg          1.412657  
         N1        1.0000    0.59787   0.23741   0.33780   Biso      1.000     N          -0.33701  
         N2        1.0000    0.00816   0.69050   0.17400   Biso      1.000     N          -0.364824           
         N3        1.0000    0.33321   0.61120   0.00050   Biso      1.000     N          -0.276001           
         N4        1.0000    0.09787   0.26259   0.16220   Biso      1.000     N          -0.33701  
         N5        1.0000    0.50816   0.80950   0.32600   Biso      1.000     N          -0.364824           
         N6        1.0000    0.83321   0.88880   0.49950   Biso      1.000     N          -0.276001           
         N7        1.0000    0.40213   0.76259   0.66220   Biso      1.000     N          -0.33701  
         N8        1.0000    0.99184   0.30950   0.82600   Biso      1.000     N          -0.364824           
         N9        1.0000    0.66679   0.38880   0.99950   Biso      1.000     N          -0.276001           
         N10       1.0000    0.90213   0.73741   0.83780   Biso      1.000     N          -0.33701  
         N11       1.0000    0.49184   0.19050   0.67400   Biso      1.000     N          -0.364824           
         N12       1.0000    0.16679   0.11120   0.50050   Biso      1.000     N          -0.276001           
         O1        1.0000    0.85775   0.49453   0.12365   Biso      1.000     O          -0.681189           
         O2        1.0000    0.52361   0.54812   0.11683   Biso      1.000     O          -0.646336           
         O3        1.0000    0.67299   0.65758   0.10110   Biso      1.000     O          -0.712751           
         O4        1.0000    0.60559   0.55203   0.22266   Biso      1.000     O          -0.609002           
         O5        1.0000    0.76539   0.64460   0.20420   Biso      1.000     O          -0.7130569999999999           
         O6        1.0000    0.53789   0.68317   0.88594   Biso      1.000     O          -0.6964859999999999           
         O7        1.0000    0.68961   0.73479   0.93302   Biso      1.000     O          -0.6113310000000001           
         O8        1.0000    0.74105   0.06798   0.35745   Biso      1.000     O          -0.6492979999999999           
         O9        1.0000    0.88070   0.98501   0.30923   Biso      1.000     O          -0.626225           
         O10       1.0000    0.84307   0.22804   0.29175   Biso      1.000     O          -0.674682           
         O11       1.0000    0.35775   0.00547   0.37635   Biso      1.000     O          -0.681189           
         O12       1.0000    0.20799   0.10735   0.35442   Biso      1.000     O          -0.6358090000000001           
         O13       1.0000    0.02361   0.95188   0.38317   Biso      1.000     O          -0.646336           
         O14       1.0000    0.17299   0.84242   0.39890   Biso      1.000     O          -0.712751           
         O15       1.0000    0.10559   0.94797   0.27734   Biso      1.000     O          -0.609002           
         O16       1.0000    0.26539   0.85540   0.29580   Biso      1.000     O          -0.7130569999999999           
         O17       1.0000    0.03789   0.81683   0.61406   Biso      1.000     O          -0.6964859999999999           
         O18       1.0000    0.18961   0.76521   0.56698   Biso      1.000     O          -0.6113310000000001           
         O19       1.0000    0.24105   0.43202   0.14255   Biso      1.000     O          -0.6492979999999999           
         O20       1.0000    0.38070   0.51499   0.19077   Biso      1.000     O          -0.626225           
         O21       1.0000    0.70799   0.39265   0.14558   Biso      1.000     O          -0.6358090000000001           
         O22       1.0000    0.03199   0.16794   0.28969   Biso      1.000     O          -0.6158020000000001           
         O23       1.0000    0.46801   0.66794   0.78969   Biso      1.000     O          -0.6158020000000001           
         O24       1.0000    0.79201   0.89265   0.64558   Biso      1.000     O          -0.6358090000000001           
         O25       1.0000    0.61930   0.48501   0.80923   Biso      1.000     O          -0.626225           
         O26       1.0000    0.29201   0.60735   0.85442   Biso      1.000     O          -0.6358090000000001           
         O27       1.0000    0.14225   0.50547   0.87635   Biso      1.000     O          -0.681189           
         O28       1.0000    0.47639   0.45188   0.88317   Biso      1.000     O          -0.646336           
         O29       1.0000    0.32701   0.34242   0.89890   Biso      1.000     O          -0.712751           
         O30       1.0000    0.39441   0.44797   0.77734   Biso      1.000     O          -0.609002           
         O31       1.0000    0.23461   0.35540   0.79580   Biso      1.000     O          -0.7130569999999999           
         O32       1.0000    0.46211   0.31683   0.11406   Biso      1.000     O          -0.6964859999999999           
         O33       1.0000    0.31039   0.26521   0.06698   Biso      1.000     O          -0.6113310000000001           
         O34       1.0000    0.25895   0.93202   0.64255   Biso      1.000     O          -0.6492979999999999           
         O35       1.0000    0.11930   0.01499   0.69077   Biso      1.000     O          -0.626225           
         O36       1.0000    0.15693   0.77196   0.70825   Biso      1.000     O          -0.674682           
         O37       1.0000    0.96801   0.83206   0.71031   Biso      1.000     O          -0.6158020000000001           
         O38       1.0000    0.34307   0.27196   0.20825   Biso      1.000     O          -0.674682           
         O39       1.0000    0.64225   0.99453   0.62365   Biso      1.000     O          -0.681189           
         O40       1.0000    0.97639   0.04812   0.61683   Biso      1.000     O          -0.646336           
         O41       1.0000    0.82701   0.15758   0.60110   Biso      1.000     O          -0.712751           
         O42       1.0000    0.89441   0.05203   0.72266   Biso      1.000     O          -0.609002           
         O43       1.0000    0.73461   0.14460   0.70420   Biso      1.000     O          -0.7130569999999999           
         O44       1.0000    0.96211   0.18317   0.38594   Biso      1.000     O          -0.6964859999999999           
         O45       1.0000    0.81039   0.23479   0.43302   Biso      1.000     O          -0.6113310000000001           
         O46       1.0000    0.75895   0.56798   0.85745   Biso      1.000     O          -0.6492979999999999           
         O47       1.0000    0.65693   0.72804   0.79175   Biso      1.000     O          -0.674682           
         O48       1.0000    0.53199   0.33206   0.21031   Biso      1.000     O          -0.6158020000000001 