
##########################################################################
#               Crystallographic Information Format file
#               Produced by PyCifRW module
#
#  This is a CIF file.  CIF has been adopted by the International
#  Union of Crystallography as the standard for data archiving and
#  transmission.
#
#  For information on this file format, follow the CIF links at
#  http://www.iucr.org
##########################################################################

data_image0

_cell_length_a                          7.1422
_cell_length_b                          21.211
_cell_length_c                          22.181
_cell_angle_alpha                       62.412
_cell_angle_beta                        81.392
_cell_angle_gamma                       89.538
_symmetry_space_group_name_H-M          'P 1'
_symmetry_int_tables_number             1
loop_
  _symmetry_equiv_pos_as_xyz
         'x, y, z' 
loop_
  _atom_site_label
  _atom_site_occupancy
  _atom_site_fract_x
  _atom_site_fract_y
  _atom_site_fract_z
  _atom_site_thermal_displace_type
  _atom_site_B_iso_or_equiv
  _atom_site_type_symbol
  _atom_site_charge
         C1        1.0000    0.08770   0.56660   0.36600   Biso      1.000     C          0.086676  
         C2        1.0000    0.39340   0.88720   0.61870   Biso      1.000     C          -0.171397           
         C3        1.0000    0.24330   0.83510   0.64760   Biso      1.000     C          -0.016709           
         C4        1.0000    0.10340   0.83860   0.69700   Biso      1.000     C          -0.157645           
         C5        1.0000    0.11460   0.88900   0.71890   Biso      1.000     C          0.088133  
         C6        1.0000    0.62980   0.88330   0.81990   Biso      1.000     C          -0.097227           
         C7        1.0000    0.77140   0.88120   0.76810   Biso      1.000     C          -0.153222           
         C8        1.0000    0.96100   0.89390   0.77060   Biso      1.000     C          0.080523  
         C9        1.0000    0.00730   0.90640   0.82380   Biso      1.000     C          -0.145729           
         C10       1.0000    0.86390   0.90490   0.87350   Biso      1.000     C          -0.09249600000000001          
         C11       1.0000    0.67910   0.89750   0.86820   Biso      1.000     C          -0.010925           
         C12       1.0000    0.52640   0.89760   0.92360   Biso      1.000     C          0.564488  
         C13       1.0000    0.53810   0.65200   0.23640   Biso      1.000     C          0.088298  
         C14       1.0000    0.49230   0.71950   0.19090   Biso      1.000     C          -0.149872           
         C15       1.0000    0.73100   0.63440   0.23550   Biso      1.000     C          -0.14336600000000002          
         C16       1.0000    0.87280   0.68440   0.19290   Biso      1.000     C          -0.094676           
         C17       1.0000    0.83120   0.75460   0.14490   Biso      1.000     C          -0.040581           
         C18       1.0000    0.63880   0.77180   0.14540   Biso      1.000     C          -0.091187           
         C19       1.0000    0.41030   0.93920   0.63860   Biso      1.000     C          0.088662  
         C20       1.0000    0.98610   0.80590   0.09690   Biso      1.000     C          0.592068  
         C21       1.0000    0.26830   0.93790   0.68990   Biso      1.000     C          -0.184058           
         C22       1.0000    0.54130   0.06430   0.59410   Biso      1.000     C          -0.142174           
         C23       1.0000    0.39950   0.52550   0.30310   Biso      1.000     C          -0.17055399999999998          
         C24       1.0000    0.25680   0.47160   0.34900   Biso      1.000     C          -0.013313           
         C25       1.0000    0.10640   0.49480   0.38010   Biso      1.000     C          -0.171998           
         C26       1.0000    0.27710   0.39840   0.36790   Biso      1.000     C          0.635905  
         C27       1.0000    0.81390   0.66660   0.44860   Biso      1.000     C          -0.094239           
         C28       1.0000    0.96190   0.64160   0.41980   Biso      1.000     C          -0.13677  
         C29       1.0000    0.92780   0.59020   0.40060   Biso      1.000     C          0.079111  
         C30       1.0000    0.74030   0.56040   0.41450   Biso      1.000     C          -0.139939           
         C31       1.0000    0.59360   0.58510   0.44380   Biso      1.000     C          -0.096411           
         C32       1.0000    0.62800   0.63830   0.46030   Biso      1.000     C          -0.035149           
         C33       1.0000    0.47140   0.66720   0.49020   Biso      1.000     C          0.591867  
         C34       1.0000    0.22270   0.78100   0.62500   Biso      1.000     C          0.612681  
         C35       1.0000    0.02500   0.15860   0.51750   Biso      1.000     C          0.606916  
         C36       1.0000    0.75530   0.97980   0.58770   Biso      1.000     C          -0.14064200000000002          
         C37       1.0000    0.90430   0.03080   0.56140   Biso      1.000     C          -0.101375           
         C38       1.0000    0.86890   0.10020   0.54860   Biso      1.000     C          -0.032982           
         C39       1.0000    0.68940   0.11670   0.56680   Biso      1.000     C          -0.092431           
         C40       1.0000    0.56760   0.99500   0.60540   Biso      1.000     C          0.07537200000000001           
         C41       1.0000    0.47360   0.10240   0.07640   Biso      1.000     C          0.564491  
         C42       1.0000    0.32090   0.10250   0.13180   Biso      1.000     C          -0.010962000000000001         
         C43       1.0000    0.13610   0.09510   0.12650   Biso      1.000     C          -0.092488           
         C44       1.0000    0.07220   0.40980   0.59940   Biso      1.000     C          0.079108  
         C45       1.0000    0.03810   0.35840   0.58020   Biso      1.000     C          -0.136767           
         C46       1.0000    0.18610   0.33340   0.55140   Biso      1.000     C          -0.094239           
         C47       1.0000    0.91230   0.43340   0.63400   Biso      1.000     C          0.086677  
         C48       1.0000    0.89360   0.50520   0.61990   Biso      1.000     C          -0.171998           
         C49       1.0000    0.74320   0.52840   0.65100   Biso      1.000     C          -0.013313           
         C50       1.0000    0.60050   0.47450   0.69690   Biso      1.000     C          -0.17055399999999998          
         C51       1.0000    0.61380   0.40200   0.71350   Biso      1.000     C          0.080746  
         C52       1.0000    0.77380   0.38170   0.68280   Biso      1.000     C          -0.18544000000000002          
         C53       1.0000    0.72290   0.60160   0.63210   Biso      1.000     C          0.635905  
         C54       1.0000    0.46190   0.34800   0.76360   Biso      1.000     C          0.088298  
         C55       1.0000    0.50770   0.28050   0.80910   Biso      1.000     C          -0.149872           
         C56       1.0000    0.26900   0.36560   0.76450   Biso      1.000     C          -0.14336600000000002          
         C57       1.0000    0.12720   0.31560   0.80710   Biso      1.000     C          -0.094676           
         C58       1.0000    0.16880   0.24540   0.85510   Biso      1.000     C          -0.040581           
         C59       1.0000    0.36120   0.22820   0.85460   Biso      1.000     C          -0.091187           
         C60       1.0000    0.01390   0.19410   0.90310   Biso      1.000     C          0.592068  
         C61       1.0000    0.25970   0.43960   0.58550   Biso      1.000     C          -0.139939           
         C62       1.0000    0.40640   0.41490   0.55620   Biso      1.000     C          -0.096411           
         C63       1.0000    0.37200   0.36170   0.53970   Biso      1.000     C          -0.035149           
         C64       1.0000    0.52860   0.33280   0.50980   Biso      1.000     C          0.591867  
         C65       1.0000    0.99270   0.09360   0.17620   Biso      1.000     C          -0.145726           
         C66       1.0000    0.03900   0.10610   0.22940   Biso      1.000     C          0.080523  
         C67       1.0000    0.22860   0.11880   0.23190   Biso      1.000     C          -0.153227           
         C68       1.0000    0.37020   0.11670   0.18010   Biso      1.000     C          -0.097194           
         C69       1.0000    0.88540   0.11100   0.28110   Biso      1.000     C          0.08813   
         C70       1.0000    0.89660   0.16140   0.30300   Biso      1.000     C          -0.157643           
         C71       1.0000    0.75670   0.16490   0.35240   Biso      1.000     C          -0.016711           
         C72       1.0000    0.60660   0.11280   0.38130   Biso      1.000     C          -0.171396           
         C73       1.0000    0.38620   0.59800   0.28650   Biso      1.000     C          0.080746  
         C74       1.0000    0.58970   0.06080   0.36140   Biso      1.000     C          0.088662  
         C75       1.0000    0.43240   0.00500   0.39460   Biso      1.000     C          0.07537200000000001           
         C76       1.0000    0.45870   0.93570   0.40590   Biso      1.000     C          -0.142174           
         C77       1.0000    0.31060   0.88330   0.43320   Biso      1.000     C          -0.092434           
         C78       1.0000    0.13110   0.89980   0.45140   Biso      1.000     C          -0.032979           
         C79       1.0000    0.09570   0.96920   0.43860   Biso      1.000     C          -0.101378           
         C80       1.0000    0.24470   0.02020   0.41230   Biso      1.000     C          -0.14063900000000001          
         C81       1.0000    0.97500   0.84140   0.48250   Biso      1.000     C          0.606915  
         C82       1.0000    0.77730   0.21900   0.37500   Biso      1.000     C          0.612682  
         C83       1.0000    0.73170   0.06210   0.31010   Biso      1.000     C          -0.184058           
         C84       1.0000    0.22620   0.61830   0.31720   Biso      1.000     C          -0.18544000000000002          
         Cd1       1.0000    0.16505   0.69050   0.56925   Biso      1.000     Cd          1.074858  
         Cd2       1.0000    0.66359   0.74660   0.56965   Biso      1.000     Cd          1.077496  
         Cd3       1.0000    0.25874   0.90729   0.01583   Biso      1.000     Cd          0.981485  
         Cd4       1.0000    0.83495   0.30950   0.43075   Biso      1.000     Cd          1.074858  
         Cd5       1.0000    0.33641   0.25340   0.43035   Biso      1.000     Cd          1.077496  
         Cd6       1.0000    0.74126   0.09271   0.98417   Biso      1.000     Cd          0.981485  
         H1        1.0000    0.39120   0.18260   0.88420   Biso      1.000     H          0.115749  
         H2        1.0000    0.50660   0.51250   0.28320   Biso      1.000     H          0.1217    
         H3        1.0000    0.01250   0.46080   0.41210   Biso      1.000     H          0.11175299999999999           
         H4        1.0000    0.83780   0.70220   0.46030   Biso      1.000     H          0.108892  
         H5        1.0000    0.08560   0.65960   0.41340   Biso      1.000     H          0.120431  
         H6        1.0000    0.71590   0.52410   0.40380   Biso      1.000     H          0.11616800000000001           
         H7        1.0000    0.47030   0.56560   0.45250   Biso      1.000     H          0.114271  
         H8        1.0000    0.77840   0.93410   0.59410   Biso      1.000     H          0.11461600000000001           
         H9        1.0000    0.02730   0.01910   0.55220   Biso      1.000     H          0.11738299999999999           
         H10       1.0000    0.48600   0.88690   0.58460   Biso      1.000     H          0.11750999999999999           
         H11       1.0000    0.27840   0.97180   0.70510   Biso      1.000     H          0.118249  
         H12       1.0000    0.21280   0.66610   0.30500   Biso      1.000     H          0.128881  
         H13       1.0000    0.99900   0.80550   0.71570   Biso      1.000     H          0.12272899999999999           
         H14       1.0000    0.50230   0.87470   0.81980   Biso      1.000     H          0.115416  
         H15       1.0000    0.73840   0.87170   0.73400   Biso      1.000     H          0.11941900000000001           
         H16       1.0000    0.13310   0.91560   0.82540   Biso      1.000     H          0.11934000000000002           
         H17       1.0000    0.89360   0.90890   0.91110   Biso      1.000     H          0.115829  
         H18       1.0000    0.66770   0.16240   0.56070   Biso      1.000     H          0.11533299999999999           
         H19       1.0000    0.36600   0.73040   0.19020   Biso      1.000     H          0.12282799999999999           
         H20       1.0000    0.41990   0.07600   0.60540   Biso      1.000     H          0.114824  
         H21       1.0000    0.99850   0.67300   0.19500   Biso      1.000     H          0.117101  
         H22       1.0000    0.76010   0.58840   0.26430   Biso      1.000     H          0.116797  
         H23       1.0000    0.23990   0.41160   0.73570   Biso      1.000     H          0.116798  
         H24       1.0000    0.63400   0.26960   0.80980   Biso      1.000     H          0.12282799999999999           
         H25       1.0000    0.78720   0.33390   0.69500   Biso      1.000     H          0.128881  
         H26       1.0000    0.49340   0.48750   0.71680   Biso      1.000     H          0.1217    
         H27       1.0000    0.98750   0.53920   0.58790   Biso      1.000     H          0.11175299999999999           
         H28       1.0000    0.16220   0.29780   0.53970   Biso      1.000     H          0.108892  
         H29       1.0000    0.91440   0.34040   0.58660   Biso      1.000     H          0.12043   
         H30       1.0000    0.28410   0.47590   0.59620   Biso      1.000     H          0.11616800000000001           
         H31       1.0000    0.52970   0.43440   0.54750   Biso      1.000     H          0.114271  
         H32       1.0000    0.22160   0.06590   0.40590   Biso      1.000     H          0.11461600000000001           
         H33       1.0000    0.00150   0.32700   0.80500   Biso      1.000     H          0.117101  
         H34       1.0000    0.60880   0.81740   0.11580   Biso      1.000     H          0.115749  
         H35       1.0000    0.33230   0.83760   0.43930   Biso      1.000     H          0.11533299999999999           
         H36       1.0000    0.58010   0.92400   0.39460   Biso      1.000     H          0.114824  
         H37       1.0000    0.72160   0.02820   0.29490   Biso      1.000     H          0.118249  
         H38       1.0000    0.51400   0.11310   0.41540   Biso      1.000     H          0.11750999999999999           
         H39       1.0000    0.00100   0.19450   0.28430   Biso      1.000     H          0.12272899999999999           
         H40       1.0000    0.49770   0.12530   0.18020   Biso      1.000     H          0.11541400000000002           
         H41       1.0000    0.26160   0.12830   0.26600   Biso      1.000     H          0.11942   
         H42       1.0000    0.86690   0.08440   0.17460   Biso      1.000     H          0.11934000000000002           
         H43       1.0000    0.10640   0.09110   0.08890   Biso      1.000     H          0.115829  
         H44       1.0000    0.97270   0.98090   0.44780   Biso      1.000     H          0.11738299999999999           
         O1        1.0000    0.93280   0.25440   0.36010   Biso      1.000     O          -0.563913           
         O2        1.0000    0.64480   0.22840   0.41150   Biso      1.000     O          -0.604049           
         O3        1.0000    0.99610   0.78750   0.47730   Biso      1.000     O          -0.597537           
         O4        1.0000    0.83090   0.84560   0.52020   Biso      1.000     O          -0.570901           
         O5        1.0000    0.84630   0.20270   0.89530   Biso      1.000     O          -0.547654           
         O6        1.0000    0.49230   0.28230   0.49820   Biso      1.000     O          -0.594057           
         O7        1.0000    0.86360   0.64210   0.61470   Biso      1.000     O          -0.611273           
         O8        1.0000    0.56130   0.62630   0.62940   Biso      1.000     O          -0.577751           
         O9        1.0000    0.64210   0.11870   0.07580   Biso      1.000     O          -0.53693  
         O10       1.0000    0.69360   0.36350   0.49330   Biso      1.000     O          -0.544346           
         O11       1.0000    0.43280   0.08080   0.03380   Biso      1.000     O          -0.56981  
         O12       1.0000    0.30640   0.63650   0.50670   Biso      1.000     O          -0.544346           
         O13       1.0000    0.15370   0.79730   0.10470   Biso      1.000     O          -0.547654           
         O14       1.0000    0.43870   0.37370   0.37060   Biso      1.000     O          -0.577751           
         O15       1.0000    0.13640   0.35790   0.38530   Biso      1.000     O          -0.611273           
         O16       1.0000    0.50770   0.71770   0.50180   Biso      1.000     O          -0.594057           
         O17       1.0000    0.16910   0.15440   0.47980   Biso      1.000     O          -0.570901           
         O18       1.0000    0.00390   0.21250   0.52270   Biso      1.000     O          -0.597537           
         O19       1.0000    0.35520   0.77160   0.58850   Biso      1.000     O          -0.604049           
         O20       1.0000    0.06720   0.74560   0.63990   Biso      1.000     O          -0.563913           
         O21       1.0000    0.35790   0.88130   0.92420   Biso      1.000     O          -0.536929           
         O22       1.0000    0.56720   0.91920   0.96620   Biso      1.000     O          -0.56981  
         O23       1.0000    0.94700   0.86630   0.05120   Biso      1.000     O          -0.569774           
         O24       1.0000    0.05300   0.13370   0.94880   Biso      1.000     O          -0.569774 