
##########################################################################
#               Crystallographic Information Format file
#               Produced by PyCifRW module
#
#  This is a CIF file.  CIF has been adopted by the International
#  Union of Crystallography as the standard for data archiving and
#  transmission.
#
#  For information on this file format, follow the CIF links at
#  http://www.iucr.org
##########################################################################

data_image0

_cell_length_a                          10.0669
_cell_length_b                          10.3562
_cell_length_c                          10.538
_cell_angle_alpha                       103.158
_cell_angle_beta                        115.524
_cell_angle_gamma                       92.546
_symmetry_space_group_name_H-M          'P 1'
_symmetry_int_tables_number             1
loop_
  _symmetry_equiv_pos_as_xyz
         'x, y, z' 
loop_
  _atom_site_label
  _atom_site_occupancy
  _atom_site_fract_x
  _atom_site_fract_y
  _atom_site_fract_z
  _atom_site_thermal_displace_type
  _atom_site_B_iso_or_equiv
  _atom_site_type_symbol
  _atom_site_charge
         C1        1.0000    0.96660   0.37420   0.90350   Biso      1.000     C          0.26948   
         C2        1.0000    0.23700   0.36040   0.99300   Biso      1.000     C          0.611298  
         C3        1.0000    0.70370   0.02240   0.96440   Biso      1.000     C          0.584801  
         C4        1.0000    0.88210   0.89890   0.90920   Biso      1.000     C          -0.22685  
         C5        1.0000    0.85660   0.00990   0.98310   Biso      1.000     C          -0.135011           
         C6        1.0000    0.03340   0.62580   0.09650   Biso      1.000     C          0.26948   
         C7        1.0000    0.91270   0.39890   0.50750   Biso      1.000     C          0.289131  
         C8        1.0000    0.13620   0.55920   0.61900   Biso      1.000     C          -0.139803           
         C9        1.0000    0.94750   0.54140   0.37230   Biso      1.000     C          -0.232744           
         C10       1.0000    0.02260   0.88160   0.92250   Biso      1.000     C          0.307607  
         C11       1.0000    0.85210   0.44150   0.91200   Biso      1.000     C          -0.207146           
         C12       1.0000    0.14790   0.55850   0.08800   Biso      1.000     C          -0.207146           
         C13       1.0000    0.86380   0.44080   0.38100   Biso      1.000     C          -0.139785           
         C14       1.0000    0.28260   0.62520   0.75190   Biso      1.000     C          0.591096  
         C15       1.0000    0.14340   0.99010   0.01690   Biso      1.000     C          -0.135043           
         C16       1.0000    0.88370   0.56740   0.00040   Biso      1.000     C          -0.111527           
         C17       1.0000    0.11790   0.10110   0.09080   Biso      1.000     C          -0.226819           
         C18       1.0000    0.76300   0.63960   0.00700   Biso      1.000     C          0.611298  
         C19       1.0000    0.71740   0.37480   0.24810   Biso      1.000     C          0.591095  
         C20       1.0000    0.08730   0.60110   0.49250   Biso      1.000     C          0.289136  
         C21       1.0000    0.11630   0.43260   0.99960   Biso      1.000     C          -0.111527           
         C22       1.0000    0.05250   0.45860   0.62770   Biso      1.000     C          -0.232729           
         C23       1.0000    0.97740   0.11840   0.07750   Biso      1.000     C          0.307601  
         C24       1.0000    0.29630   0.97760   0.03560   Biso      1.000     C          0.584804  
         H1        1.0000    0.03890   0.29470   0.21720   Biso      1.000     H          0.352318  
         H2        1.0000    0.75340   0.39920   0.85640   Biso      1.000     H          0.137683  
         H3        1.0000    0.87560   0.24670   0.15210   Biso      1.000     H          0.339192  
         H4        1.0000    0.80220   0.83040   0.84630   Biso      1.000     H          0.144352  
         H5        1.0000    0.16210   0.79960   0.25120   Biso      1.000     H          0.342009  
         H6        1.0000    0.00030   0.80390   0.20350   Biso      1.000     H          0.348281  
         H7        1.0000    0.52950   0.94920   0.17590   Biso      1.000     H          0.367864  
         H8        1.0000    0.68520   0.00680   0.18230   Biso      1.000     H          0.417226  
         H9        1.0000    0.08670   0.42920   0.71170   Biso      1.000     H          0.133557  
         H10       1.0000    0.85890   0.27450   0.60310   Biso      1.000     H          0.312982  
         H11       1.0000    0.14110   0.72550   0.39690   Biso      1.000     H          0.312982  
         H12       1.0000    0.91330   0.57080   0.28830   Biso      1.000     H          0.133558  
         H13       1.0000    0.31480   0.99320   0.81770   Biso      1.000     H          0.417226  
         H14       1.0000    0.47050   0.05080   0.82410   Biso      1.000     H          0.367864  
         H15       1.0000    0.19780   0.16960   0.15370   Biso      1.000     H          0.144349  
         H16       1.0000    0.26090   0.73920   0.54720   Biso      1.000     H          0.336597  
         H17       1.0000    0.24660   0.60080   0.14360   Biso      1.000     H          0.137683  
         H18       1.0000    0.73910   0.26080   0.45280   Biso      1.000     H          0.336598  
         H19       1.0000    0.96110   0.70530   0.78280   Biso      1.000     H          0.352318  
         H20       1.0000    0.12440   0.75330   0.84790   Biso      1.000     H          0.339192  
         H21       1.0000    0.99970   0.19610   0.79650   Biso      1.000     H          0.348281  
         H22       1.0000    0.83790   0.20040   0.74880   Biso      1.000     H          0.342009  
         Lu1       1.0000    0.52507   0.76625   0.99666   Biso      1.000     Lu          1.6272    
         Lu2       1.0000    0.47493   0.23375   0.00334   Biso      1.000     Lu          1.6272    
         N1        1.0000    0.82550   0.29820   0.52320   Biso      1.000     N          -0.744519           
         N2        1.0000    0.17450   0.70180   0.47680   Biso      1.000     N          -0.744518           
         N3        1.0000    0.03790   0.76580   0.84100   Biso      1.000     N          -0.703403           
         N4        1.0000    0.07000   0.76200   0.19800   Biso      1.000     N          -0.736468           
         N5        1.0000    0.93000   0.23800   0.80200   Biso      1.000     N          -0.736468           
         N6        1.0000    0.96210   0.23420   0.15900   Biso      1.000     N          -0.703404           
         O1        1.0000    0.37240   0.40260   0.09800   Biso      1.000     O          -0.631452           
         O2        1.0000    0.67880   0.41230   0.13780   Biso      1.000     O          -0.562022           
         O3        1.0000    0.39420   0.08850   0.08640   Biso      1.000     O          -0.625315           
         O4        1.0000    0.22320   0.26140   0.89830   Biso      1.000     O          -0.572055           
         O5        1.0000    0.33040   0.86320   0.00090   Biso      1.000     O          -0.587591           
         O6        1.0000    0.63790   0.27550   0.25060   Biso      1.000     O          -0.591832           
         O7        1.0000    0.32120   0.58770   0.86220   Biso      1.000     O          -0.562022           
         O8        1.0000    0.60580   0.91150   0.91360   Biso      1.000     O          -0.625315           
         O9        1.0000    0.77680   0.73860   0.10170   Biso      1.000     O          -0.572055           
         O10       1.0000    0.66960   0.13680   0.99910   Biso      1.000     O          -0.587591           
         O11       1.0000    0.36210   0.72450   0.74940   Biso      1.000     O          -0.591832           
         O12       1.0000    0.63810   0.94190   0.21440   Biso      1.000     O          -0.704951           
         O13       1.0000    0.36190   0.05810   0.78560   Biso      1.000     O          -0.704952           
         O14       1.0000    0.62760   0.59740   0.90200   Biso      1.000     O          -0.631452 