
##########################################################################
#               Crystallographic Information Format file
#               Produced by PyCifRW module
#
#  This is a CIF file.  CIF has been adopted by the International
#  Union of Crystallography as the standard for data archiving and
#  transmission.
#
#  For information on this file format, follow the CIF links at
#  http://www.iucr.org
##########################################################################

data_image0

_cell_length_a                          10.6994
_cell_length_b                          12.1961
_cell_length_c                          13.6773
_cell_angle_alpha                       90
_cell_angle_beta                        90
_cell_angle_gamma                       101.574
_symmetry_space_group_name_H-M          'P 1'
_symmetry_int_tables_number             1
loop_
  _symmetry_equiv_pos_as_xyz
         'x, y, z' 
loop_
  _atom_site_label
  _atom_site_occupancy
  _atom_site_fract_x
  _atom_site_fract_y
  _atom_site_fract_z
  _atom_site_thermal_displace_type
  _atom_site_B_iso_or_equiv
  _atom_site_type_symbol
  _atom_site_charge
         C1        1.0000    0.04480   0.71530   0.84030   Biso      1.000     C          0.00125   
         C2        1.0000    0.95310   0.20060   0.22700   Biso      1.000     C          -0.137235           
         C3        1.0000    0.06120   0.15540   0.24290   Biso      1.000     C          -0.023338           
         C4        1.0000    0.17200   0.19860   0.19030   Biso      1.000     C          -0.10404  
         C5        1.0000    0.06070   0.06320   0.31540   Biso      1.000     C          0.646904  
         C6        1.0000    0.83860   0.33100   0.13420   Biso      1.000     C          0.580971  
         C7        1.0000    0.19930   0.15840   0.57600   Biso      1.000     C          0.654691  
         C8        1.0000    0.95520   0.28470   0.15970   Biso      1.000     C          0.001254  
         C9        1.0000    0.32180   0.21330   0.62760   Biso      1.000     C          -0.021766           
         C10       1.0000    0.54480   0.21530   0.65970   Biso      1.000     C          0.00125   
         C11       1.0000    0.54690   0.29940   0.72700   Biso      1.000     C          -0.13723  
         C12       1.0000    0.43880   0.34460   0.74290   Biso      1.000     C          -0.02334  
         C13       1.0000    0.32800   0.30140   0.69030   Biso      1.000     C          -0.104032           
         C14       1.0000    0.43930   0.43680   0.81540   Biso      1.000     C          0.646904  
         C15       1.0000    0.66140   0.16900   0.63420   Biso      1.000     C          0.580971  
         C16       1.0000    0.43130   0.16950   0.61180   Biso      1.000     C          -0.11222  
         C17       1.0000    0.06870   0.33050   0.11180   Biso      1.000     C          -0.112221           
         C18       1.0000    0.17820   0.28670   0.12760   Biso      1.000     C          -0.021758           
         C19       1.0000    0.30070   0.34160   0.07600   Biso      1.000     C          0.65469   
         C20       1.0000    0.33860   0.83100   0.36580   Biso      1.000     C          0.580971  
         C21       1.0000    0.56070   0.56320   0.18460   Biso      1.000     C          0.646904  
         C22       1.0000    0.67200   0.69860   0.30970   Biso      1.000     C          -0.10404  
         C23       1.0000    0.56120   0.65540   0.25710   Biso      1.000     C          -0.02334  
         C24       1.0000    0.45310   0.70060   0.27300   Biso      1.000     C          -0.137234           
         C25       1.0000    0.45520   0.78470   0.34030   Biso      1.000     C          0.001254  
         C26       1.0000    0.56870   0.83050   0.38820   Biso      1.000     C          -0.112221           
         C27       1.0000    0.67820   0.78670   0.37240   Biso      1.000     C          -0.021758           
         C28       1.0000    0.80070   0.84160   0.42400   Biso      1.000     C          0.65469   
         C29       1.0000    0.16140   0.66900   0.86580   Biso      1.000     C          0.580971  
         C30       1.0000    0.93930   0.93680   0.68460   Biso      1.000     C          0.646904  
         C31       1.0000    0.82800   0.80140   0.80970   Biso      1.000     C          -0.10404  
         C32       1.0000    0.93880   0.84460   0.75710   Biso      1.000     C          -0.023341           
         C33       1.0000    0.04690   0.79940   0.77300   Biso      1.000     C          -0.137229           
         C34       1.0000    0.93130   0.66950   0.88820   Biso      1.000     C          -0.112221           
         C35       1.0000    0.69930   0.65840   0.92400   Biso      1.000     C          0.65469   
         C36       1.0000    0.82180   0.71330   0.87240   Biso      1.000     C          -0.021758           
         Ce1       1.0000    0.37694   0.60434   0.96391   Biso      1.000     Ce          2.05621   
         Ce2       1.0000    0.87694   0.10434   0.53609   Biso      1.000     Ce          2.05621   
         Ce3       1.0000    0.12306   0.89566   0.46391   Biso      1.000     Ce          2.05621   
         Ce4       1.0000    0.62306   0.39566   0.03609   Biso      1.000     Ce          2.05621   
         H1        1.0000    0.07150   0.39040   0.06910   Biso      1.000     H          0.129295  
         H2        1.0000    0.87900   0.17360   0.26220   Biso      1.000     H          0.115541  
         H3        1.0000    0.42850   0.10960   0.56910   Biso      1.000     H          0.129295  
         H4        1.0000    0.62100   0.32640   0.76220   Biso      1.000     H          0.115541  
         H5        1.0000    0.24330   0.16660   0.19820   Biso      1.000     H          0.133843  
         H6        1.0000    0.92850   0.60960   0.93090   Biso      1.000     H          0.129295  
         H7        1.0000    0.12100   0.82640   0.73780   Biso      1.000     H          0.115541  
         H8        1.0000    0.75670   0.83340   0.80180   Biso      1.000     H          0.133843  
         H9        1.0000    0.57150   0.89040   0.43090   Biso      1.000     H          0.129295  
         H10       1.0000    0.37900   0.67360   0.23780   Biso      1.000     H          0.115541  
         H11       1.0000    0.25670   0.33340   0.69820   Biso      1.000     H          0.133843  
         H12       1.0000    0.74330   0.66660   0.30180   Biso      1.000     H          0.133843  
         O1        1.0000    0.86650   0.00240   0.69730   Biso      1.000     O          -0.556754           
         O2        1.0000    0.14780   0.57230   0.89910   Biso      1.000     O          -0.603509           
         O3        1.0000    0.27110   0.73290   0.85720   Biso      1.000     O          -0.667354           
         O4        1.0000    0.01160   0.94150   0.61000   Biso      1.000     O          -0.778148           
         O5        1.0000    0.48840   0.55850   0.11000   Biso      1.000     O          -0.778148           
         O6        1.0000    0.90220   0.81330   0.40010   Biso      1.000     O          -0.646165           
         O7        1.0000    0.35220   0.92770   0.39910   Biso      1.000     O          -0.603509           
         O8        1.0000    0.22890   0.76710   0.35720   Biso      1.000     O          -0.667354           
         O9        1.0000    0.59780   0.68670   0.90010   Biso      1.000     O          -0.646165           
         O10       1.0000    0.78960   0.91170   0.48900   Biso      1.000     O          -0.668188           
         O11       1.0000    0.71040   0.58830   0.98900   Biso      1.000     O          -0.668188           
         O12       1.0000    0.98840   0.05850   0.39000   Biso      1.000     O          -0.778148           
         O13       1.0000    0.51160   0.44150   0.89000   Biso      1.000     O          -0.778148           
         O14       1.0000    0.77110   0.23290   0.64280   Biso      1.000     O          -0.667354           
         O15       1.0000    0.64780   0.07230   0.60090   Biso      1.000     O          -0.603509           
         O16       1.0000    0.09780   0.18670   0.59990   Biso      1.000     O          -0.646165           
         O17       1.0000    0.21040   0.08830   0.51100   Biso      1.000     O          -0.668188           
         O18       1.0000    0.13350   0.99760   0.30270   Biso      1.000     O          -0.556754           
         O19       1.0000    0.72890   0.26710   0.14280   Biso      1.000     O          -0.667354           
         O20       1.0000    0.85220   0.42770   0.10090   Biso      1.000     O          -0.603509           
         O21       1.0000    0.40220   0.31330   0.09990   Biso      1.000     O          -0.646165           
         O22       1.0000    0.28960   0.41170   0.01100   Biso      1.000     O          -0.668188           
         O23       1.0000    0.36650   0.50240   0.80270   Biso      1.000     O          -0.556754           
         O24       1.0000    0.63350   0.49760   0.19730   Biso      1.000     O          -0.556754 