
##########################################################################
#               Crystallographic Information Format file
#               Produced by PyCifRW module
#
#  This is a CIF file.  CIF has been adopted by the International
#  Union of Crystallography as the standard for data archiving and
#  transmission.
#
#  For information on this file format, follow the CIF links at
#  http://www.iucr.org
##########################################################################

data_image0

_cell_length_a                          11.3106
_cell_length_b                          12.6698
_cell_length_c                          14.7397
_cell_angle_alpha                       90
_cell_angle_beta                        90
_cell_angle_gamma                       90
_symmetry_space_group_name_H-M          'P 1'
_symmetry_int_tables_number             1
loop_
  _symmetry_equiv_pos_as_xyz
         'x, y, z' 
loop_
  _atom_site_label
  _atom_site_occupancy
  _atom_site_fract_x
  _atom_site_fract_y
  _atom_site_fract_z
  _atom_site_thermal_displace_type
  _atom_site_B_iso_or_equiv
  _atom_site_type_symbol
  _atom_site_charge
         C1        1.0000    0.50000   0.55140   0.25000   Biso      1.000     C          -0.49588999999999994          
         C2        1.0000    0.92850   0.44780   0.09560   Biso      1.000     C          0.73075   
         C3        1.0000    0.19740   0.38600   0.92410   Biso      1.000     C          0.780496  
         C4        1.0000    0.97020   0.01390   0.66780   Biso      1.000     C          0.7363770000000001  
         C5        1.0000    0.47020   0.51390   0.83220   Biso      1.000     C          0.7363770000000001  
         C6        1.0000    0.69740   0.88600   0.57590   Biso      1.000     C          0.780496  
         C7        1.0000    0.61820   0.95090   0.63690   Biso      1.000     C          -0.534157           
         C8        1.0000    0.57150   0.05220   0.59560   Biso      1.000     C          0.73075   
         C9        1.0000    0.00000   0.94860   0.75000   Biso      1.000     C          -0.49588999999999994          
         C10       1.0000    0.52980   0.51390   0.66780   Biso      1.000     C          0.7363770000000001  
         C11       1.0000    0.57150   0.94780   0.09560   Biso      1.000     C          0.73075   
         C12       1.0000    0.61820   0.04910   0.13690   Biso      1.000     C          -0.534157           
         C13       1.0000    0.80260   0.38600   0.57590   Biso      1.000     C          0.780496  
         C14       1.0000    0.88180   0.45090   0.63690   Biso      1.000     C          -0.534157           
         C15       1.0000    0.69740   0.11400   0.07590   Biso      1.000     C          0.780496  
         C16       1.0000    0.92850   0.55220   0.59560   Biso      1.000     C          0.73075   
         C17       1.0000    0.88180   0.54910   0.13690   Biso      1.000     C          -0.534157           
         C18       1.0000    0.07150   0.55220   0.90440   Biso      1.000     C          0.73075   
         C19       1.0000    0.11820   0.45090   0.86310   Biso      1.000     C          -0.534157           
         C20       1.0000    0.52980   0.48610   0.16780   Biso      1.000     C          0.7363770000000001  
         C21       1.0000    0.50000   0.44860   0.75000   Biso      1.000     C          -0.49588999999999994          
         C22       1.0000    0.00000   0.05140   0.25000   Biso      1.000     C          -0.49588999999999994          
         C23       1.0000    0.47020   0.48610   0.33220   Biso      1.000     C          0.7363770000000001  
         C24       1.0000    0.19740   0.61400   0.42410   Biso      1.000     C          0.780496  
         C25       1.0000    0.42850   0.94780   0.40440   Biso      1.000     C          0.73075   
         C26       1.0000    0.38180   0.04910   0.36310   Biso      1.000     C          -0.534157           
         C27       1.0000    0.11820   0.54910   0.36310   Biso      1.000     C          -0.534157           
         C28       1.0000    0.07150   0.44780   0.40440   Biso      1.000     C          0.73075   
         C29       1.0000    0.80260   0.61400   0.07590   Biso      1.000     C          0.780496  
         C30       1.0000    0.30260   0.11400   0.42410   Biso      1.000     C          0.780496  
         C31       1.0000    0.02980   0.01390   0.83220   Biso      1.000     C          0.7363770000000001  
         C32       1.0000    0.02980   0.98610   0.33220   Biso      1.000     C          0.7363770000000001  
         C33       1.0000    0.30260   0.88600   0.92410   Biso      1.000     C          0.780496  
         C34       1.0000    0.38180   0.95090   0.86310   Biso      1.000     C          -0.534157           
         C35       1.0000    0.42850   0.05220   0.90440   Biso      1.000     C          0.73075   
         C36       1.0000    0.97020   0.98610   0.16780   Biso      1.000     C          0.7363770000000001  
         Ce1       1.0000    0.85060   0.11490   0.50700   Biso      1.000     Ce          2.110739  
         Ce2       1.0000    0.64940   0.38510   0.00700   Biso      1.000     Ce          2.1107400000000003  
         Ce3       1.0000    0.14940   0.11490   0.99300   Biso      1.000     Ce          2.1107400000000003  
         Ce4       1.0000    0.64940   0.61490   0.50700   Biso      1.000     Ce          2.1107400000000003  
         Ce5       1.0000    0.35060   0.38510   0.49300   Biso      1.000     Ce          2.110739  
         Ce6       1.0000    0.14940   0.88510   0.49300   Biso      1.000     Ce          2.1107400000000003  
         Ce7       1.0000    0.35060   0.61490   0.99300   Biso      1.000     Ce          2.1107400000000003  
         Ce8       1.0000    0.85060   0.88510   0.00700   Biso      1.000     Ce          2.1107400000000003  
         H1        1.0000    0.83820   0.53150   0.19150   Biso      1.000     H          0.179335  
         H2        1.0000    0.56670   0.59650   0.26430   Biso      1.000     H          0.177308  
         H3        1.0000    0.44870   0.90770   0.84520   Biso      1.000     H          0.16836199999999998           
         H4        1.0000    0.93330   0.09650   0.26430   Biso      1.000     H          0.177308  
         H5        1.0000    0.94870   0.59230   0.15480   Biso      1.000     H          0.16836199999999998           
         H6        1.0000    0.05130   0.40770   0.84520   Biso      1.000     H          0.16836199999999998           
         H7        1.0000    0.16180   0.46850   0.80850   Biso      1.000     H          0.179335  
         H8        1.0000    0.33820   0.96850   0.80850   Biso      1.000     H          0.179336  
         H9        1.0000    0.06670   0.09650   0.23570   Biso      1.000     H          0.177308  
         H10       1.0000    0.93330   0.90350   0.76430   Biso      1.000     H          0.177308  
         H11       1.0000    0.06670   0.90350   0.73570   Biso      1.000     H          0.177308  
         H12       1.0000    0.43330   0.40350   0.73570   Biso      1.000     H          0.177308  
         H13       1.0000    0.66180   0.96850   0.69150   Biso      1.000     H          0.179335  
         H14       1.0000    0.33820   0.03150   0.30850   Biso      1.000     H          0.179335  
         H15       1.0000    0.55130   0.90770   0.65480   Biso      1.000     H          0.16836199999999998           
         H16       1.0000    0.05130   0.59230   0.34520   Biso      1.000     H          0.16836199999999998           
         H17       1.0000    0.56670   0.40350   0.76430   Biso      1.000     H          0.177308  
         H18       1.0000    0.16180   0.53150   0.30850   Biso      1.000     H          0.179335  
         H19       1.0000    0.43330   0.59650   0.23570   Biso      1.000     H          0.177308  
         H20       1.0000    0.66180   0.03150   0.19150   Biso      1.000     H          0.179335  
         H21       1.0000    0.94870   0.40770   0.65480   Biso      1.000     H          0.16836199999999998           
         H22       1.0000    0.44870   0.09230   0.34520   Biso      1.000     H          0.16836199999999998           
         H23       1.0000    0.55130   0.09230   0.15480   Biso      1.000     H          0.16836199999999998           
         H24       1.0000    0.83820   0.46850   0.69150   Biso      1.000     H          0.179335  
         O1        1.0000    0.18190   0.71170   0.42600   Biso      1.000     O          -0.70193  
         O2        1.0000    0.35440   0.88270   0.43700   Biso      1.000     O          -0.747346           
         O3        1.0000    0.31810   0.78830   0.92600   Biso      1.000     O          -0.70193  
         O4        1.0000    0.14560   0.61730   0.93700   Biso      1.000     O          -0.747346           
         O5        1.0000    0.22170   0.06770   0.46800   Biso      1.000     O          -0.7029880000000001           
         O6        1.0000    0.53660   0.93140   0.40200   Biso      1.000     O          -0.598454           
         O7        1.0000    0.51490   0.50830   0.40820   Biso      1.000     O          -0.766934           
         O8        1.0000    0.10300   0.08670   0.82500   Biso      1.000     O          -0.583613           
         O9        1.0000    0.98510   0.00830   0.40820   Biso      1.000     O          -0.766934           
         O10       1.0000    0.39700   0.41330   0.32500   Biso      1.000     O          -0.583613           
         O11       1.0000    0.31810   0.21170   0.42600   Biso      1.000     O          -0.70193  
         O12       1.0000    0.10300   0.91330   0.32500   Biso      1.000     O          -0.583613           
         O13       1.0000    0.14560   0.38270   0.43700   Biso      1.000     O          -0.747346           
         O14       1.0000    0.53660   0.06860   0.90200   Biso      1.000     O          -0.598454           
         O15       1.0000    0.27830   0.56770   0.46800   Biso      1.000     O          -0.7029880000000001           
         O16       1.0000    0.96340   0.43140   0.40200   Biso      1.000     O          -0.5984550000000001           
         O17       1.0000    0.98510   0.99170   0.90820   Biso      1.000     O          -0.766934           
         O18       1.0000    0.22170   0.93230   0.96800   Biso      1.000     O          -0.7029880000000001           
         O19       1.0000    0.01490   0.00830   0.09180   Biso      1.000     O          -0.766934           
         O20       1.0000    0.27830   0.43230   0.96800   Biso      1.000     O          -0.7029880000000001           
         O21       1.0000    0.85440   0.61730   0.56300   Biso      1.000     O          -0.747346           
         O22       1.0000    0.72170   0.43230   0.53200   Biso      1.000     O          -0.7029890000000001           
         O23       1.0000    0.03660   0.56860   0.59800   Biso      1.000     O          -0.5984550000000001           
         O24       1.0000    0.81810   0.28830   0.57400   Biso      1.000     O          -0.70193  
         O25       1.0000    0.89700   0.91330   0.17500   Biso      1.000     O          -0.583613           
         O26       1.0000    0.60300   0.58670   0.67500   Biso      1.000     O          -0.583613           
         O27       1.0000    0.48510   0.49170   0.59180   Biso      1.000     O          -0.766934           
         O28       1.0000    0.68190   0.21170   0.07400   Biso      1.000     O          -0.70193  
         O29       1.0000    0.46340   0.93140   0.09800   Biso      1.000     O          -0.598454           
         O30       1.0000    0.77830   0.06770   0.03200   Biso      1.000     O          -0.7029880000000001           
         O31       1.0000    0.77830   0.93230   0.53200   Biso      1.000     O          -0.7029880000000001           
         O32       1.0000    0.46340   0.06860   0.59800   Biso      1.000     O          -0.598454           
         O33       1.0000    0.35440   0.11730   0.93700   Biso      1.000     O          -0.747346           
         O34       1.0000    0.68190   0.78830   0.57400   Biso      1.000     O          -0.70193  
         O35       1.0000    0.89700   0.08670   0.67500   Biso      1.000     O          -0.583613           
         O36       1.0000    0.01490   0.99170   0.59180   Biso      1.000     O          -0.766934           
         O37       1.0000    0.51490   0.49170   0.90820   Biso      1.000     O          -0.766934           
         O38       1.0000    0.39700   0.58670   0.82500   Biso      1.000     O          -0.583613           
         O39       1.0000    0.85440   0.38270   0.06300   Biso      1.000     O          -0.747346           
         O40       1.0000    0.72170   0.56770   0.03200   Biso      1.000     O          -0.7029880000000001           
         O41       1.0000    0.03660   0.43140   0.09800   Biso      1.000     O          -0.598454           
         O42       1.0000    0.81810   0.71170   0.07400   Biso      1.000     O          -0.70193  
         O43       1.0000    0.18190   0.28830   0.92600   Biso      1.000     O          -0.70193  
         O44       1.0000    0.60300   0.41330   0.17500   Biso      1.000     O          -0.583613           
         O45       1.0000    0.48510   0.50830   0.09180   Biso      1.000     O          -0.766934           
         O46       1.0000    0.96340   0.56860   0.90200   Biso      1.000     O          -0.598454           
         O47       1.0000    0.64560   0.88270   0.06300   Biso      1.000     O          -0.747346           
         O48       1.0000    0.64560   0.11730   0.56300   Biso      1.000     O          -0.747346 