
##########################################################################
#               Crystallographic Information Format file
#               Produced by PyCifRW module
#
#  This is a CIF file.  CIF has been adopted by the International
#  Union of Crystallography as the standard for data archiving and
#  transmission.
#
#  For information on this file format, follow the CIF links at
#  http://www.iucr.org
##########################################################################

data_image0

_cell_length_a                          18.1115
_cell_length_b                          18.1115
_cell_length_c                          18.1115
_cell_angle_alpha                       60
_cell_angle_beta                        60
_cell_angle_gamma                       60
_symmetry_space_group_name_H-M          'P 1'
_symmetry_int_tables_number             1
loop_
  _symmetry_equiv_pos_as_xyz
         'x, y, z' 
loop_
  _atom_site_label
  _atom_site_occupancy
  _atom_site_fract_x
  _atom_site_fract_y
  _atom_site_fract_z
  _atom_site_thermal_displace_type
  _atom_site_B_iso_or_equiv
  _atom_site_type_symbol
  _atom_site_charge
         C1        1.0000    0.41720   0.94320   0.94320   Biso      1.000     C          -0.389897           
         C2        1.0000    0.97300   0.46204   0.97300   Biso      1.000     C          0.08405399999999999           
         C3        1.0000    0.41720   0.94320   0.69640   Biso      1.000     C          -0.39056599999999997          
         C4        1.0000    0.46204   0.97300   0.59196   Biso      1.000     C          0.08340499999999999           
         C5        1.0000    0.05680   0.05680   0.30360   Biso      1.000     C          -0.385728           
         C6        1.0000    0.02700   0.02700   0.40804   Biso      1.000     C          0.08221   
         C7        1.0000    0.40804   0.53796   0.02700   Biso      1.000     C          0.081809  
         C8        1.0000    0.58280   0.30360   0.05680   Biso      1.000     C          -0.387022           
         C9        1.0000    0.94320   0.41720   0.94320   Biso      1.000     C          -0.38950999999999997          
         C10       1.0000    0.53796   0.40804   0.02700   Biso      1.000     C          0.083676  
         C11       1.0000    0.02700   0.02700   0.53796   Biso      1.000     C          0.081426  
         C12       1.0000    0.05680   0.58280   0.05680   Biso      1.000     C          -0.378729           
         C13       1.0000    0.02700   0.53796   0.02700   Biso      1.000     C          0.081313  
         C14       1.0000    0.30360   0.05680   0.58280   Biso      1.000     C          -0.38309099999999996          
         C15       1.0000    0.40804   0.02700   0.53796   Biso      1.000     C          0.081581  
         C16       1.0000    0.58280   0.05680   0.30360   Biso      1.000     C          -0.381632           
         C17       1.0000    0.53796   0.02700   0.40804   Biso      1.000     C          0.081218  
         C18       1.0000    0.05680   0.05680   0.58280   Biso      1.000     C          -0.381921           
         C19       1.0000    0.05680   0.30360   0.05680   Biso      1.000     C          -0.388466           
         C20       1.0000    0.97300   0.59196   0.97300   Biso      1.000     C          0.081123  
         C21       1.0000    0.59196   0.97300   0.46204   Biso      1.000     C          0.082663  
         C22       1.0000    0.94320   0.94320   0.69640   Biso      1.000     C          -0.38613400000000003          
         C23       1.0000    0.97300   0.97300   0.59196   Biso      1.000     C          0.082535  
         C24       1.0000    0.41720   0.69640   0.94320   Biso      1.000     C          -0.381804           
         C25       1.0000    0.46204   0.59196   0.97300   Biso      1.000     C          0.081696  
         C26       1.0000    0.69640   0.41720   0.94320   Biso      1.000     C          -0.38624899999999995          
         C27       1.0000    0.59196   0.46204   0.97300   Biso      1.000     C          0.083554  
         C28       1.0000    0.94320   0.94320   0.41720   Biso      1.000     C          -0.390335           
         C29       1.0000    0.94320   0.69640   0.94320   Biso      1.000     C          -0.379775           
         C30       1.0000    0.97300   0.97300   0.46204   Biso      1.000     C          0.08367999999999999           
         C31       1.0000    0.94320   0.69640   0.41720   Biso      1.000     C          -0.380807           
         C32       1.0000    0.97300   0.59196   0.46204   Biso      1.000     C          0.081343  
         C33       1.0000    0.94320   0.41720   0.69640   Biso      1.000     C          -0.390021           
         C34       1.0000    0.97300   0.46204   0.59196   Biso      1.000     C          0.084244  
         C35       1.0000    0.69640   0.94320   0.94320   Biso      1.000     C          -0.387558           
         C36       1.0000    0.59196   0.97300   0.97300   Biso      1.000     C          0.082803  
         C37       1.0000    0.69640   0.94320   0.41720   Biso      1.000     C          -0.387204           
         C38       1.0000    0.46204   0.97300   0.97300   Biso      1.000     C          0.083304  
         C39       1.0000    0.02700   0.40804   0.02700   Biso      1.000     C          0.08404   
         C40       1.0000    0.30360   0.58280   0.05680   Biso      1.000     C          -0.37901  
         C41       1.0000    0.02700   0.40804   0.53796   Biso      1.000     C          0.084182  
         C42       1.0000    0.05680   0.30360   0.58280   Biso      1.000     C          -0.389305           
         C43       1.0000    0.11130   0.38870   0.38870   Biso      1.000     C          0.6493270000000001  
         C44       1.0000    0.05330   0.44670   0.44670   Biso      1.000     C          -0.13660999999999998          
         C45       1.0000    0.38870   0.11130   0.11130   Biso      1.000     C          0.6440020000000001  
         C46       1.0000    0.44670   0.05330   0.05330   Biso      1.000     C          -0.135002           
         C47       1.0000    0.11130   0.38870   0.11130   Biso      1.000     C          0.650616  
         C48       1.0000    0.05330   0.44670   0.05330   Biso      1.000     C          -0.13686600000000002          
         C49       1.0000    0.38870   0.11130   0.38870   Biso      1.000     C          0.6437390000000001  
         C50       1.0000    0.44670   0.05330   0.44670   Biso      1.000     C          -0.13483  
         C51       1.0000    0.05330   0.05330   0.44670   Biso      1.000     C          -0.135275           
         C52       1.0000    0.38870   0.38870   0.11130   Biso      1.000     C          0.649126  
         C53       1.0000    0.44670   0.44670   0.05330   Biso      1.000     C          -0.13666  
         C54       1.0000    0.61130   0.88870   0.61130   Biso      1.000     C          0.660145  
         C55       1.0000    0.55330   0.94670   0.55330   Biso      1.000     C          -0.139628           
         C56       1.0000    0.88870   0.61130   0.88870   Biso      1.000     C          0.653668  
         C57       1.0000    0.11130   0.11130   0.38870   Biso      1.000     C          0.644944  
         C58       1.0000    0.61130   0.88870   0.88870   Biso      1.000     C          0.659883  
         C59       1.0000    0.30360   0.05680   0.05680   Biso      1.000     C          -0.38334  
         C60       1.0000    0.94670   0.55330   0.94670   Biso      1.000     C          -0.137901           
         C61       1.0000    0.58280   0.05680   0.05680   Biso      1.000     C          -0.38122399999999995          
         C62       1.0000    0.53796   0.02700   0.02700   Biso      1.000     C          0.081148  
         C63       1.0000    0.05680   0.58280   0.30360   Biso      1.000     C          -0.378646           
         C64       1.0000    0.02700   0.53796   0.40804   Biso      1.000     C          0.081462  
         C65       1.0000    0.55330   0.55330   0.94670   Biso      1.000     C          -0.13811400000000001          
         C66       1.0000    0.40804   0.02700   0.02700   Biso      1.000     C          0.081761  
         C67       1.0000    0.94670   0.94670   0.55330   Biso      1.000     C          -0.13933099999999998          
         C68       1.0000    0.88870   0.88870   0.61130   Biso      1.000     C          0.6587729999999999  
         C69       1.0000    0.94670   0.55330   0.55330   Biso      1.000     C          -0.138071           
         C70       1.0000    0.88870   0.61130   0.61130   Biso      1.000     C          0.654255  
         C71       1.0000    0.55330   0.94670   0.94670   Biso      1.000     C          -0.139532           
         C72       1.0000    0.61130   0.61130   0.88870   Biso      1.000     C          0.6540229999999999  
         H1        1.0000    0.62453   0.99455   0.28148   Biso      1.000     H          0.121518  
         H2        1.0000    0.52810   0.10279   0.27068   Biso      1.000     H          0.11520799999999999           
         H3        1.0000    0.13192   0.27284   0.04786   Biso      1.000     H          0.120494  
         H4        1.0000    0.01631   0.27612   0.13091   Biso      1.000     H          0.122198  
         H5        1.0000    0.04405   0.28515   0.01352   Biso      1.000     H          0.121046  
         H6        1.0000    0.13005   0.27641   0.57924   Biso      1.000     H          0.12359200000000001           
         H7        1.0000    0.01162   0.28507   0.65655   Biso      1.000     H          0.120941  
         H8        1.0000    0.28324   0.08031   0.99627   Biso      1.000     H          0.122146  
         H9        1.0000    0.27092   0.11469   0.08412   Biso      1.000     H          0.11456199999999998           
         H10       1.0000    0.27995   0.99729   0.11189   Biso      1.000     H          0.125973  
         H11       1.0000    0.52848   0.10715   0.09365   Biso      1.000     H          0.11595499999999999           
         H12       1.0000    0.63289   0.09003   0.99466   Biso      1.000     H          0.11988900000000001           
         H13       1.0000    0.61995   0.99511   0.10397   Biso      1.000     H          0.124429  
         H14       1.0000    0.62870   0.09495   0.28195   Biso      1.000     H          0.12458399999999999           
         H15       1.0000    0.05061   0.27263   0.54554   Biso      1.000     H          0.120566  
         H16       1.0000    0.28324   0.99627   0.64018   Biso      1.000     H          0.12212100000000001           
         H17       1.0000    0.65421   0.28481   0.05380   Biso      1.000     H          0.119621  
         H18       1.0000    0.27995   0.11189   0.61087   Biso      1.000     H          0.122448  
         H19       1.0000    0.10018   0.62380   0.28140   Biso      1.000     H          0.123377  
         H20       1.0000    0.54120   0.27215   0.12893   Biso      1.000     H          0.118876  
         H21       1.0000    0.27093   0.53034   0.11487   Biso      1.000     H          0.11664300000000001           
         H22       1.0000    0.27992   0.61062   0.99737   Biso      1.000     H          0.123779  
         H23       1.0000    0.28326   0.64036   0.08004   Biso      1.000     H          0.11715199999999999           
         H24       1.0000    0.99967   0.11683   0.27921   Biso      1.000     H          0.123228  
         H25       1.0000    0.07328   0.99827   0.28374   Biso      1.000     H          0.12153   
         H26       1.0000    0.11933   0.07718   0.27115   Biso      1.000     H          0.118549  
         H27       1.0000    0.58591   0.27715   0.00955   Biso      1.000     H          0.125521  
         H28       1.0000    0.99478   0.10178   0.62222   Biso      1.000     H          0.125222  
         H29       1.0000    0.09246   0.99448   0.63086   Biso      1.000     H          0.121246  
         H30       1.0000    0.10504   0.09602   0.52825   Biso      1.000     H          0.114745  
         H31       1.0000    0.99449   0.63092   0.09240   Biso      1.000     H          0.121522  
         H32       1.0000    0.09596   0.52825   0.10509   Biso      1.000     H          0.116495  
         H33       1.0000    0.10184   0.62216   0.99479   Biso      1.000     H          0.11881300000000002           
         H34       1.0000    0.27092   0.08412   0.53028   Biso      1.000     H          0.117326  
         H35       1.0000    0.09768   0.52814   0.27068   Biso      1.000     H          0.11512599999999999           
         H36       1.0000    0.99114   0.94899   0.71508   Biso      1.000     H          0.11743900000000002           
         H37       1.0000    0.44115   0.96676   0.72588   Biso      1.000     H          0.121326  
         H38       1.0000    0.43240   0.86692   0.97579   Biso      1.000     H          0.124902  
         H39       1.0000    0.44534   0.96184   0.86647   Biso      1.000     H          0.119476  
         H40       1.0000    0.34093   0.97896   0.96546   Biso      1.000     H          0.11800999999999999           
         H41       1.0000    0.96428   0.86629   0.44331   Biso      1.000     H          0.122602  
         H42       1.0000    0.97685   0.96783   0.34070   Biso      1.000     H          0.117903  
         H43       1.0000    0.86659   0.97359   0.43467   Biso      1.000     H          0.12124000000000001           
         H44       1.0000    0.00186   0.72034   0.39169   Biso      1.000     H          0.121761  
         H45       1.0000    0.43697   0.86636   0.72541   Biso      1.000     H          0.12262100000000001           
         H46       1.0000    0.71486   0.34279   0.98668   Biso      1.000     H          0.11904   
         H47       1.0000    0.72718   0.45281   0.95186   Biso      1.000     H          0.117328  
         H48       1.0000    0.35365   0.71607   0.00074   Biso      1.000     H          0.116771  
         H49       1.0000    0.39836   0.72108   0.88136   Biso      1.000     H          0.12254200000000001           
         H50       1.0000    0.46666   0.72874   0.92561   Biso      1.000     H          0.116425  
         H51       1.0000    0.94509   0.87008   0.72767   Biso      1.000     H          0.120215  
         H52       1.0000    0.72385   0.42307   0.86918   Biso      1.000     H          0.122235  
         H53       1.0000    0.92242   0.71656   0.35799   Biso      1.000     H          0.11840999999999999           
         H54       1.0000    0.87148   0.98864   0.72314   Biso      1.000     H          0.12274600000000001           
         H55       1.0000    0.88343   0.72900   0.46899   Biso      1.000     H          0.115594  
         H56       1.0000    0.96777   0.34070   0.97691   Biso      1.000     H          0.12137   
         H57       1.0000    0.97365   0.43460   0.86660   Biso      1.000     H          0.120111  
         H58       1.0000    0.86630   0.44337   0.96421   Biso      1.000     H          0.12076400000000001           
         H59       1.0000    0.88812   0.72005   0.00272   Biso      1.000     H          0.119827  
         H60       1.0000    0.91586   0.72908   0.88533   Biso      1.000     H          0.11596500000000001           
         H61       1.0000    0.00373   0.71677   0.91967   Biso      1.000     H          0.119675  
         H62       1.0000    0.71485   0.95593   0.34272   Biso      1.000     H          0.117477  
         H63       1.0000    0.72716   0.86808   0.45263   Biso      1.000     H          0.121858  
         H64       1.0000    0.72388   0.98370   0.42332   Biso      1.000     H          0.121208  
         H65       1.0000    0.72716   0.95212   0.86808   Biso      1.000     H          0.11949000000000001           
         H66       1.0000    0.72388   0.86910   0.98370   Biso      1.000     H          0.12351300000000001           
         H67       1.0000    0.71485   0.98650   0.95593   Biso      1.000     H          0.116541  
         H68       1.0000    0.96949   0.34059   0.71461   Biso      1.000     H          0.12036300000000001           
         H69       1.0000    0.86623   0.44183   0.72595   Biso      1.000     H          0.119653  
         H70       1.0000    0.97200   0.43625   0.72533   Biso      1.000     H          0.12093599999999999           
         H71       1.0000    0.99442   0.62939   0.28203   Biso      1.000     H          0.119237  
         H72       1.0000    0.34055   0.97460   0.71461   Biso      1.000     H          0.118283  
         O1        1.0000    0.36665   0.07193   0.36665   Biso      1.000     O          -0.547404           
         O2        1.0000    0.63335   0.63335   0.80523   Biso      1.000     O          -0.545281           
         O3        1.0000    0.25000   0.25000   0.25000   Biso      1.000     O          -1.047283           
         O4        1.0000    0.75000   0.75000   0.75000   Biso      1.000     O          -1.045596           
         O5        1.0000    0.07193   0.36665   0.36665   Biso      1.000     O          -0.549941           
         O6        1.0000    0.36665   0.07193   0.19477   Biso      1.000     O          -0.543946           
         O7        1.0000    0.36665   0.19477   0.07193   Biso      1.000     O          -0.549776           
         O8        1.0000    0.19477   0.36665   0.36665   Biso      1.000     O          -0.5454060000000001           
         O9        1.0000    0.07193   0.36665   0.19477   Biso      1.000     O          -0.546653           
         O10       1.0000    0.92807   0.80523   0.63335   Biso      1.000     O          -0.5519470000000001           
         O11       1.0000    0.19477   0.36665   0.07193   Biso      1.000     O          -0.549281           
         O12       1.0000    0.07193   0.19477   0.36665   Biso      1.000     O          -0.5451520000000001           
         O13       1.0000    0.36665   0.36665   0.07193   Biso      1.000     O          -0.5436449999999999           
         O14       1.0000    0.36665   0.19477   0.36665   Biso      1.000     O          -0.546071           
         O15       1.0000    0.19477   0.07193   0.36665   Biso      1.000     O          -0.5489689999999999           
         O16       1.0000    0.63335   0.63335   0.92807   Biso      1.000     O          -0.552992           
         O17       1.0000    0.36665   0.36665   0.19477   Biso      1.000     O          -0.551283           
         O18       1.0000    0.63335   0.80523   0.92807   Biso      1.000     O          -0.547061           
         O19       1.0000    0.92807   0.63335   0.63335   Biso      1.000     O          -0.546977           
         O20       1.0000    0.80523   0.63335   0.63335   Biso      1.000     O          -0.5514439999999999           
         O21       1.0000    0.80523   0.92807   0.63335   Biso      1.000     O          -0.547691           
         O22       1.0000    0.63335   0.80523   0.63335   Biso      1.000     O          -0.551046           
         O23       1.0000    0.80523   0.63335   0.92807   Biso      1.000     O          -0.548061           
         O24       1.0000    0.92807   0.63335   0.80523   Biso      1.000     O          -0.550335           
         O25       1.0000    0.63335   0.92807   0.63335   Biso      1.000     O          -0.549192           
         O26       1.0000    0.63335   0.92807   0.80523   Biso      1.000     O          -0.55281  
         Zn1       1.0000    0.70626   0.70625   0.70625   Biso      1.000     Zn          0.9616450000000001  
         Zn2       1.0000    0.70626   0.70625   0.88124   Biso      1.000     Zn          0.961566  
         Zn3       1.0000    0.88125   0.70625   0.70625   Biso      1.000     Zn          0.961364  
         Zn4       1.0000    0.70626   0.88124   0.70625   Biso      1.000     Zn          0.960907  
         Zn5       1.0000    0.29374   0.29375   0.29375   Biso      1.000     Zn          0.9601360000000001  
         Zn6       1.0000    0.29374   0.29375   0.11876   Biso      1.000     Zn          0.960325  
         Zn7       1.0000    0.29374   0.11876   0.29375   Biso      1.000     Zn          0.960735  
         Zn8       1.0000    0.11875   0.29375   0.29375   Biso      1.000     Zn          0.9603360000000001 