
##########################################################################
#               Crystallographic Information Format file
#               Produced by PyCifRW module
#
#  This is a CIF file.  CIF has been adopted by the International
#  Union of Crystallography as the standard for data archiving and
#  transmission.
#
#  For information on this file format, follow the CIF links at
#  http://www.iucr.org
##########################################################################

data_image0

_cell_length_a                          8.8547
_cell_length_b                          9.9689
_cell_length_c                          12.9721
_cell_angle_alpha                       97.005
_cell_angle_beta                        97.885
_cell_angle_gamma                       90.929
_symmetry_space_group_name_H-M          'P 1'
_symmetry_int_tables_number             1
loop_
  _symmetry_equiv_pos_as_xyz
         'x, y, z' 
loop_
  _atom_site_label
  _atom_site_occupancy
  _atom_site_fract_x
  _atom_site_fract_y
  _atom_site_fract_z
  _atom_site_thermal_displace_type
  _atom_site_B_iso_or_equiv
  _atom_site_type_symbol
  _atom_site_charge
         C1        1.0000    0.87570   0.44560   0.27395   Biso      1.000     C          -0.164469           
         C2        1.0000    0.54570   0.35770   0.80038   Biso      1.000     C          -0.225917           
         C3        1.0000    0.12430   0.55440   0.72605   Biso      1.000     C          -0.164469           
         C4        1.0000    0.15530   0.42630   0.08107   Biso      1.000     C          -0.131149           
         C5        1.0000    0.08350   0.31830   0.01938   Biso      1.000     C          -0.051507000000000004         
         C6        1.0000    0.18190   0.24667   0.16208   Biso      1.000     C          0.059532  
         C7        1.0000    0.40100   0.16730   0.86220   Biso      1.000     C          -0.156475           
         C8        1.0000    0.43960   0.80170   0.95880   Biso      1.000     C          -0.137711           
         C9        1.0000    0.30030   0.84300   0.92168   Biso      1.000     C          -0.060425           
         C10       1.0000    0.84470   0.57370   0.91893   Biso      1.000     C          -0.131149           
         C11       1.0000    0.34350   0.92310   0.08285   Biso      1.000     C          0.08986799999999999           
         C12       1.0000    0.84640   0.40800   0.45979   Biso      1.000     C          -0.142576           
         C13       1.0000    0.87320   0.30320   0.51604   Biso      1.000     C          -0.027183           
         C14       1.0000    0.41260   0.54465   0.73391   Biso      1.000     C          -0.25968  
         C15       1.0000    0.92300   0.23710   0.36124   Biso      1.000     C          0.08825   
         C16       1.0000    0.07700   0.76290   0.63876   Biso      1.000     C          0.08825   
         C17       1.0000    0.27560   0.48889   0.75142   Biso      1.000     C          0.133261  
         C18       1.0000    0.27480   0.36833   0.79477   Biso      1.000     C          -0.22123299999999999          
         C19       1.0000    0.40910   0.30230   0.82027   Biso      1.000     C          0.144681  
         C20       1.0000    0.69730   0.53770   0.73603   Biso      1.000     C          -0.165446           
         C21       1.0000    0.59900   0.83270   0.13780   Biso      1.000     C          -0.156475           
         C22       1.0000    0.54830   0.47902   0.75764   Biso      1.000     C          0.128592  
         C23       1.0000    0.45170   0.52098   0.24236   Biso      1.000     C          0.12859   
         C24       1.0000    0.56040   0.19830   0.04120   Biso      1.000     C          -0.137711           
         C25       1.0000    0.65650   0.07690   0.91715   Biso      1.000     C          0.08986799999999999           
         C26       1.0000    0.91650   0.68170   0.98062   Biso      1.000     C          -0.051507000000000004         
         C27       1.0000    0.45430   0.64230   0.19962   Biso      1.000     C          -0.22591599999999998          
         C28       1.0000    0.15360   0.59200   0.54021   Biso      1.000     C          -0.142576           
         C29       1.0000    0.59090   0.69770   0.17973   Biso      1.000     C          0.14468   
         C30       1.0000    0.72520   0.63167   0.20523   Biso      1.000     C          -0.22123299999999999          
         C31       1.0000    0.72440   0.51111   0.24858   Biso      1.000     C          0.133261  
         C32       1.0000    0.12680   0.69680   0.48396   Biso      1.000     C          -0.027183           
         C33       1.0000    0.58740   0.45535   0.26609   Biso      1.000     C          -0.259679           
         C34       1.0000    0.30270   0.46230   0.26397   Biso      1.000     C          -0.165445           
         C35       1.0000    0.81810   0.75333   0.83792   Biso      1.000     C          0.059532  
         C36       1.0000    0.69970   0.15700   0.07832   Biso      1.000     C          -0.060425           
         H1        1.0000    0.18280   0.33120   0.80690   Biso      1.000     H          0.131144  
         H2        1.0000    0.74720   0.17710   0.14720   Biso      1.000     H          0.10361600000000001           
         H3        1.0000    0.18760   0.50750   0.51660   Biso      1.000     H          0.133604  
         H4        1.0000    0.66650   0.03130   0.85160   Biso      1.000     H          0.105145  
         H5        1.0000    0.13920   0.69610   0.41390   Biso      1.000     H          0.117084  
         H6        1.0000    0.63610   0.31330   0.81580   Biso      1.000     H          0.13320099999999999           
         H7        1.0000    0.83940   0.48550   0.93510   Biso      1.000     H          0.13486199999999998           
         H8        1.0000    0.49600   0.25160   0.07860   Biso      1.000     H          0.12255999999999999           
         H9        1.0000    0.67690   0.59310   0.67950   Biso      1.000     H          0.12433499999999999           
         H10       1.0000    0.76040   0.46450   0.71290   Biso      1.000     H          0.13051300000000002           
         H11       1.0000    0.78910   0.80930   0.78680   Biso      1.000     H          0.109249  
         H12       1.0000    0.39330   0.09530   0.80410   Biso      1.000     H          0.138443  
         H13       1.0000    0.30950   0.16230   0.89520   Biso      1.000     H          0.13151400000000002           
         H14       1.0000    0.04430   0.48440   0.70870   Biso      1.000     H          0.128999  
         H15       1.0000    0.10300   0.61200   0.78790   Biso      1.000     H          0.12405999999999999           
         H16       1.0000    0.96890   0.68010   0.04770   Biso      1.000     H          0.11747300000000001           
         H17       1.0000    0.41410   0.62630   0.70620   Biso      1.000     H          0.12253800000000001           
         H18       1.0000    0.95080   0.18390   0.30330   Biso      1.000     H          0.105591  
         H19       1.0000    0.04920   0.81610   0.69670   Biso      1.000     H          0.105591  
         H20       1.0000    0.95570   0.51560   0.29130   Biso      1.000     H          0.128999  
         H21       1.0000    0.50400   0.74840   0.92140   Biso      1.000     H          0.12255999999999999           
         H22       1.0000    0.25280   0.82290   0.85280   Biso      1.000     H          0.10361600000000001           
         H23       1.0000    0.33350   0.96870   0.14840   Biso      1.000     H          0.105145  
         H24       1.0000    0.81240   0.49250   0.48340   Biso      1.000     H          0.133604  
         H25       1.0000    0.86080   0.30390   0.58610   Biso      1.000     H          0.117084  
         H26       1.0000    0.16060   0.51450   0.06490   Biso      1.000     H          0.13486199999999998           
         H27       1.0000    0.21090   0.19070   0.21320   Biso      1.000     H          0.109249  
         H28       1.0000    0.89700   0.38800   0.21210   Biso      1.000     H          0.12405999999999999           
         H29       1.0000    0.60670   0.90470   0.19590   Biso      1.000     H          0.138443  
         H30       1.0000    0.23960   0.53550   0.28710   Biso      1.000     H          0.13051300000000002           
         H31       1.0000    0.32310   0.40690   0.32050   Biso      1.000     H          0.12433399999999999           
         H32       1.0000    0.58590   0.37370   0.29380   Biso      1.000     H          0.12253800000000001           
         H33       1.0000    0.81720   0.66880   0.19310   Biso      1.000     H          0.131144  
         H34       1.0000    0.36390   0.68670   0.18420   Biso      1.000     H          0.13320099999999999           
         H35       1.0000    0.69050   0.83770   0.10480   Biso      1.000     H          0.13151400000000002           
         H36       1.0000    0.03110   0.31990   0.95230   Biso      1.000     H          0.11747300000000001           
         Mn1       1.0000    0.00000   0.00000   0.50000   Biso      1.000     Mn          1.0231629999999998  
         Mn2       1.0000    0.00000   0.00000   0.00000   Biso      1.000     Mn          0.8298049999999999  
         N1        1.0000    0.92160   0.19578   0.45410   Biso      1.000     N          -0.309257           
         N2        1.0000    0.09987   0.20592   0.07083   Biso      1.000     N          -0.274008           
         N3        1.0000    0.21868   0.38017   0.17216   Biso      1.000     N          0.06264199999999999           
         N4        1.0000    0.23886   0.91907   0.00046   Biso      1.000     N          -0.281185           
         N5        1.0000    0.46679   0.85378   0.06180   Biso      1.000     N          0.07463600000000001           
         N6        1.0000    0.87936   0.36493   0.36095   Biso      1.000     N          0.072126  
         N7        1.0000    0.07840   0.80422   0.54590   Biso      1.000     N          -0.309257           
         N8        1.0000    0.53321   0.14622   0.93820   Biso      1.000     N          0.07463600000000001           
         N9        1.0000    0.78132   0.61983   0.82784   Biso      1.000     N          0.06264199999999999           
         N10       1.0000    0.90013   0.79408   0.92917   Biso      1.000     N          -0.274008           
         N11       1.0000    0.76114   0.08093   0.99954   Biso      1.000     N          -0.281185           
         N12       1.0000    0.12064   0.63507   0.63905   Biso      1.000     N          0.072126  
         O1        1.0000    0.09813   0.75679   0.22681   Biso      1.000     O          -0.701869           
         O2        1.0000    0.21174   0.97831   0.29060   Biso      1.000     O          -0.749645           
         O3        1.0000    0.96948   0.91497   0.33733   Biso      1.000     O          -0.717428           
         O4        1.0000    0.90187   0.24321   0.77319   Biso      1.000     O          -0.701869           
         O5        1.0000    0.78826   0.02169   0.70940   Biso      1.000     O          -0.749645           
         O6        1.0000    0.03052   0.08503   0.66267   Biso      1.000     O          -0.717428           
         O7        1.0000    0.01176   0.04605   0.83903   Biso      1.000     O          -0.686175           
         O8        1.0000    0.98824   0.95395   0.16097   Biso      1.000     O          -0.686175           
         S1        1.0000    0.93229   0.10138   0.74667   Biso      1.000     S          1.4693370000000001  
         S2        1.0000    0.06771   0.89862   0.25333   Biso      1.000     S          1.4693370000000001 