
##########################################################################
#               Crystallographic Information Format file
#               Produced by PyCifRW module
#
#  This is a CIF file.  CIF has been adopted by the International
#  Union of Crystallography as the standard for data archiving and
#  transmission.
#
#  For information on this file format, follow the CIF links at
#  http://www.iucr.org
##########################################################################

data_image0

_cell_length_a                          7.7834
_cell_length_b                          10.1301
_cell_length_c                          10.3277
_cell_angle_alpha                       103.873
_cell_angle_beta                        91.797
_cell_angle_gamma                       90.935
_symmetry_space_group_name_H-M          'P 1'
_symmetry_int_tables_number             1
loop_
  _symmetry_equiv_pos_as_xyz
         'x, y, z' 
loop_
  _atom_site_label
  _atom_site_occupancy
  _atom_site_fract_x
  _atom_site_fract_y
  _atom_site_fract_z
  _atom_site_thermal_displace_type
  _atom_site_B_iso_or_equiv
  _atom_site_type_symbol
  _atom_site_charge
         Br1       1.0000    0.00374   0.21483   0.09376   Biso      1.000     Br          -0.088016           
         Br2       1.0000    0.99626   0.78517   0.90624   Biso      1.000     Br          -0.088015           
         Br3       1.0000    0.17285   0.98647   0.29075   Biso      1.000     Br          -0.059542           
         Br4       1.0000    0.82715   0.01353   0.70925   Biso      1.000     Br          -0.059543           
         C1        1.0000    0.63900   0.00120   0.58510   Biso      1.000     C          0.103844  
         C2        1.0000    0.36100   0.99880   0.41490   Biso      1.000     C          0.103843  
         C3        1.0000    0.37440   0.26040   0.46720   Biso      1.000     C          0.635453  
         C4        1.0000    0.88350   0.48920   0.72710   Biso      1.000     C          0.643255  
         C5        1.0000    0.06040   0.61920   0.08530   Biso      1.000     C          -0.160708           
         C6        1.0000    0.42180   0.87790   0.43560   Biso      1.000     C          -0.170869           
         C7        1.0000    0.43710   0.12280   0.47760   Biso      1.000     C          -0.052375           
         C8        1.0000    0.56290   0.87720   0.52240   Biso      1.000     C          -0.052379           
         C9        1.0000    0.93960   0.38080   0.91470   Biso      1.000     C          -0.160708           
         C10       1.0000    0.11650   0.51080   0.27290   Biso      1.000     C          0.643254  
         C11       1.0000    0.05780   0.50060   0.12990   Biso      1.000     C          -0.049425           
         C12       1.0000    0.99710   0.38280   0.04360   Biso      1.000     C          0.09115   
         C13       1.0000    0.57820   0.12210   0.56440   Biso      1.000     C          -0.170873           
         C14       1.0000    0.62560   0.73960   0.53280   Biso      1.000     C          0.635453  
         C15       1.0000    0.94220   0.49940   0.87010   Biso      1.000     C          -0.049426           
         C16       1.0000    0.00290   0.61720   0.95640   Biso      1.000     C          0.09115   
         Ca1       1.0000    0.25016   0.53263   0.54032   Biso      1.000     Ca          1.475564  
         Ca2       1.0000    0.74984   0.46737   0.45968   Biso      1.000     Ca          1.475565  
         H1        1.0000    0.36810   0.79610   0.39130   Biso      1.000     H          0.132584  
         H2        1.0000    0.10080   0.70020   0.14200   Biso      1.000     H          0.123218  
         H3        1.0000    0.89920   0.29980   0.85800   Biso      1.000     H          0.123218  
         H4        1.0000    0.63190   0.20390   0.60870   Biso      1.000     H          0.132585  
         O1        1.0000    0.98930   0.51270   0.64580   Biso      1.000     O          -0.711907           
         O2        1.0000    0.21890   0.28430   0.48190   Biso      1.000     O          -0.605957           
         O3        1.0000    0.48440   0.34700   0.45140   Biso      1.000     O          -0.70655  
         O4        1.0000    0.51560   0.65300   0.54860   Biso      1.000     O          -0.70655  
         O5        1.0000    0.26920   0.54650   0.30640   Biso      1.000     O          -0.599713           
         O6        1.0000    0.78110   0.71570   0.51810   Biso      1.000     O          -0.605958           
         O7        1.0000    0.01070   0.48730   0.35420   Biso      1.000     O          -0.711907           
         O8        1.0000    0.73080   0.45350   0.69360   Biso      1.000     O          -0.599713 