
##########################################################################
#               Crystallographic Information Format file
#               Produced by PyCifRW module
#
#  This is a CIF file.  CIF has been adopted by the International
#  Union of Crystallography as the standard for data archiving and
#  transmission.
#
#  For information on this file format, follow the CIF links at
#  http://www.iucr.org
##########################################################################

data_image0

_cell_length_a                          17.2931
_cell_length_b                          10.0521
_cell_length_c                          17.6583
_cell_angle_alpha                       90
_cell_angle_beta                        90
_cell_angle_gamma                       90
_symmetry_space_group_name_H-M          'P 1'
_symmetry_int_tables_number             1
loop_
  _symmetry_equiv_pos_as_xyz
         'x, y, z' 
loop_
  _atom_site_label
  _atom_site_occupancy
  _atom_site_fract_x
  _atom_site_fract_y
  _atom_site_fract_z
  _atom_site_thermal_displace_type
  _atom_site_B_iso_or_equiv
  _atom_site_type_symbol
  _atom_site_charge
         C1        1.0000    0.33940   0.04800   0.00310   Biso      1.000     C          0.7112430000000001  
         C2        1.0000    0.25010   0.44410   0.60210   Biso      1.000     C          -0.11860599999999999          
         C3        1.0000    0.96590   0.95230   0.19910   Biso      1.000     C          -0.12499  
         C4        1.0000    0.90860   0.06830   0.10150   Biso      1.000     C          -0.10761400000000002          
         C5        1.0000    0.18000   0.49270   0.57860   Biso      1.000     C          -0.136506           
         C6        1.0000    0.07340   0.50260   0.09550   Biso      1.000     C          -0.118399           
         C7        1.0000    0.98000   0.04660   0.07220   Biso      1.000     C          -0.11854200000000001          
         C8        1.0000    0.17550   0.40420   0.70790   Biso      1.000     C          -0.119448           
         C9        1.0000    0.01270   0.09130   0.99820   Biso      1.000     C          0.6870609999999999  
         C10       1.0000    0.52250   0.38570   0.77300   Biso      1.000     C          0.6790039999999999  
         C11       1.0000    0.32050   0.06030   0.77780   Biso      1.000     C          0.6935600000000001  
         C12       1.0000    0.08410   0.56000   0.16770   Biso      1.000     C          -0.12868800000000002          
         C13       1.0000    0.60030   0.51390   0.67460   Biso      1.000     C          -0.117746           
         C14       1.0000    0.35320   0.86130   0.28290   Biso      1.000     C          0.684585  
         C15       1.0000    0.36070   0.84020   0.50580   Biso      1.000     C          0.675004  
         C16       1.0000    0.36760   0.91760   0.57680   Biso      1.000     C          -0.119459           
         C17       1.0000    0.34920   0.01730   0.70210   Biso      1.000     C          -0.135969           
         C18       1.0000    0.41590   0.06000   0.66770   Biso      1.000     C          -0.128685           
         C19       1.0000    0.24990   0.94410   0.10210   Biso      1.000     C          -0.118605           
         C20       1.0000    0.53410   0.45230   0.69910   Biso      1.000     C          -0.124984           
         C21       1.0000    0.59140   0.56830   0.60150   Biso      1.000     C          -0.10761300000000001          
         C22       1.0000    0.32000   0.99270   0.07860   Biso      1.000     C          -0.136506           
         C23       1.0000    0.42660   0.00260   0.59550   Biso      1.000     C          -0.118394           
         C24       1.0000    0.25240   0.89290   0.17650   Biso      1.000     C          -0.099441           
         C25       1.0000    0.15080   0.51730   0.20210   Biso      1.000     C          -0.135966           
         C26       1.0000    0.13240   0.41760   0.07680   Biso      1.000     C          -0.11945399999999999          
         C27       1.0000    0.13930   0.34020   0.00580   Biso      1.000     C          0.675003  
         C28       1.0000    0.02250   0.11430   0.77300   Biso      1.000     C          0.6790039999999999  
         C29       1.0000    0.82050   0.43970   0.77780   Biso      1.000     C          0.6935600000000001  
         C30       1.0000    0.10030   0.98610   0.67460   Biso      1.000     C          -0.117746           
         C31       1.0000    0.75240   0.60710   0.17650   Biso      1.000     C          -0.099442           
         C32       1.0000    0.85320   0.63870   0.28290   Biso      1.000     C          0.684585  
         C33       1.0000    0.86070   0.65980   0.50580   Biso      1.000     C          0.675004  
         C34       1.0000    0.86760   0.58240   0.57680   Biso      1.000     C          -0.119459           
         C35       1.0000    0.84920   0.48270   0.70210   Biso      1.000     C          -0.135969           
         C36       1.0000    0.91590   0.44000   0.66770   Biso      1.000     C          -0.128685           
         C37       1.0000    0.74990   0.55590   0.10210   Biso      1.000     C          -0.118605           
         C38       1.0000    0.03410   0.04770   0.69910   Biso      1.000     C          -0.124984           
         C39       1.0000    0.09140   0.93170   0.60150   Biso      1.000     C          -0.10761300000000001          
         C40       1.0000    0.82000   0.50730   0.07860   Biso      1.000     C          -0.136506           
         C41       1.0000    0.92660   0.49740   0.59550   Biso      1.000     C          -0.118394           
         C42       1.0000    0.02000   0.95340   0.57220   Biso      1.000     C          -0.11854200000000001          
         C43       1.0000    0.82450   0.59580   0.20790   Biso      1.000     C          -0.11944400000000001          
         C44       1.0000    0.98730   0.90870   0.49820   Biso      1.000     C          0.6870609999999999  
         C45       1.0000    0.16060   0.54800   0.50310   Biso      1.000     C          0.7112430000000001  
         C46       1.0000    0.97750   0.88570   0.27300   Biso      1.000     C          0.679005  
         C47       1.0000    0.17950   0.56030   0.27780   Biso      1.000     C          0.693559  
         C48       1.0000    0.89970   0.01390   0.17460   Biso      1.000     C          -0.11774000000000001          
         C49       1.0000    0.24760   0.39290   0.67650   Biso      1.000     C          -0.099437           
         C50       1.0000    0.14680   0.36130   0.78290   Biso      1.000     C          0.6845859999999999  
         C51       1.0000    0.52000   0.54660   0.57220   Biso      1.000     C          -0.11854200000000001          
         C52       1.0000    0.32450   0.90420   0.20790   Biso      1.000     C          -0.11944400000000001          
         C53       1.0000    0.83940   0.45200   0.00310   Biso      1.000     C          0.7112430000000001  
         C54       1.0000    0.48000   0.45340   0.07220   Biso      1.000     C          -0.118558           
         C55       1.0000    0.67950   0.93970   0.27780   Biso      1.000     C          0.693559  
         C56       1.0000    0.47750   0.61430   0.27300   Biso      1.000     C          0.6790039999999999  
         C57       1.0000    0.74760   0.10710   0.67650   Biso      1.000     C          -0.099441           
         C58       1.0000    0.75010   0.05590   0.60210   Biso      1.000     C          -0.118605           
         C59       1.0000    0.66060   0.95200   0.50310   Biso      1.000     C          0.7112430000000001  
         C60       1.0000    0.68000   0.00730   0.57860   Biso      1.000     C          -0.136506           
         C61       1.0000    0.57340   0.99740   0.09550   Biso      1.000     C          -0.118399           
         C62       1.0000    0.58410   0.94000   0.16770   Biso      1.000     C          -0.12868800000000002          
         C63       1.0000    0.40860   0.43170   0.10150   Biso      1.000     C          -0.107599           
         C64       1.0000    0.67550   0.09580   0.70790   Biso      1.000     C          -0.11944400000000001          
         C65       1.0000    0.46590   0.54770   0.19910   Biso      1.000     C          -0.12499  
         C66       1.0000    0.65080   0.98270   0.20210   Biso      1.000     C          -0.135965           
         C67       1.0000    0.48730   0.59130   0.49820   Biso      1.000     C          0.6870609999999999  
         C68       1.0000    0.63240   0.08240   0.07680   Biso      1.000     C          -0.11945399999999999          
         C69       1.0000    0.51270   0.40870   0.99820   Biso      1.000     C          0.687063  
         C70       1.0000    0.63930   0.15980   0.00580   Biso      1.000     C          0.675003  
         C71       1.0000    0.39970   0.48610   0.17460   Biso      1.000     C          -0.11774200000000001          
         C72       1.0000    0.64680   0.13870   0.78290   Biso      1.000     C          0.684585  
         H1        1.0000    0.29440   0.44480   0.57240   Biso      1.000     H          0.11742799999999999           
         H2        1.0000    0.35440   0.48080   0.20280   Biso      1.000     H          0.126575  
         H3        1.0000    0.79440   0.05520   0.57240   Biso      1.000     H          0.11742799999999999           
         H4        1.0000    0.86970   0.11410   0.07610   Biso      1.000     H          0.137293  
         H5        1.0000    0.28990   0.35580   0.70120   Biso      1.000     H          0.141923  
         H6        1.0000    0.85440   0.01920   0.20280   Biso      1.000     H          0.126575  
         H7        1.0000    0.78990   0.14420   0.70120   Biso      1.000     H          0.141924  
         H8        1.0000    0.54970   0.87990   0.18950   Biso      1.000     H          0.12202   
         H9        1.0000    0.04970   0.62010   0.18950   Biso      1.000     H          0.12202   
         H10       1.0000    0.03130   0.52030   0.06430   Biso      1.000     H          0.125277  
         H11       1.0000    0.64560   0.51920   0.70280   Biso      1.000     H          0.126576  
         H12       1.0000    0.14560   0.98080   0.70280   Biso      1.000     H          0.126576  
         H13       1.0000    0.71010   0.64420   0.20120   Biso      1.000     H          0.141924  
         H14       1.0000    0.46870   0.02030   0.56430   Biso      1.000     H          0.125277  
         H15       1.0000    0.95030   0.37990   0.68950   Biso      1.000     H          0.12202   
         H16       1.0000    0.63030   0.61410   0.57610   Biso      1.000     H          0.137293  
         H17       1.0000    0.36970   0.38590   0.07610   Biso      1.000     H          0.137292  
         H18       1.0000    0.70560   0.55520   0.07240   Biso      1.000     H          0.11742799999999999           
         H19       1.0000    0.13030   0.88590   0.57610   Biso      1.000     H          0.137293  
         H20       1.0000    0.45030   0.12010   0.68950   Biso      1.000     H          0.12202   
         H21       1.0000    0.96870   0.47970   0.56430   Biso      1.000     H          0.125276  
         H22       1.0000    0.53130   0.97970   0.06430   Biso      1.000     H          0.125277  
         H23       1.0000    0.21010   0.85580   0.20120   Biso      1.000     H          0.141924  
         H24       1.0000    0.20560   0.94480   0.07240   Biso      1.000     H          0.11742799999999999           
         Ho1       1.0000    0.82185   0.88708   0.39844   Biso      1.000     Ho          2.121396  
         Ho2       1.0000    0.67815   0.38708   0.89844   Biso      1.000     Ho          2.121396  
         Ho3       1.0000    0.02085   0.65931   0.38311   Biso      1.000     Ho          2.1300630000000003  
         Ho4       1.0000    0.47915   0.15931   0.88311   Biso      1.000     Ho          2.1300630000000003  
         Ho5       1.0000    0.32185   0.61292   0.39844   Biso      1.000     Ho          2.121396  
         Ho6       1.0000    0.97915   0.34069   0.88311   Biso      1.000     Ho          2.1300630000000003  
         Ho7       1.0000    0.17815   0.11292   0.89844   Biso      1.000     Ho          2.121396  
         Ho8       1.0000    0.52085   0.84069   0.38311   Biso      1.000     Ho          2.1300630000000003  
         O1        1.0000    0.96630   0.15120   0.95380   Biso      1.000     O          -0.660004           
         O2        1.0000    0.19500   0.30540   0.82720   Biso      1.000     O          -0.649122           
         O3        1.0000    0.80170   0.73050   0.49540   Biso      1.000     O          -0.627567           
         O4        1.0000    0.92280   0.61770   0.29690   Biso      1.000     O          -0.7136399999999999           
         O5        1.0000    0.03370   0.84880   0.45380   Biso      1.000     O          -0.660004           
         O6        1.0000    0.80500   0.69460   0.32720   Biso      1.000     O          -0.649122           
         O7        1.0000    0.69500   0.19460   0.82720   Biso      1.000     O          -0.649122           
         O8        1.0000    0.46280   0.32060   0.78480   Biso      1.000     O          -0.615367           
         O9        1.0000    0.41570   0.84750   0.45870   Biso      1.000     O          -0.753957           
         O10       1.0000    0.28510   0.04910   0.95630   Biso      1.000     O          -0.7076319999999999           
         O11       1.0000    0.46630   0.34880   0.95380   Biso      1.000     O          -0.660004           
         O12       1.0000    0.57720   0.11770   0.79690   Biso      1.000     O          -0.7136399999999999           
         O13       1.0000    0.91570   0.65250   0.45870   Biso      1.000     O          -0.753957           
         O14       1.0000    0.69830   0.23050   0.99540   Biso      1.000     O          -0.627567           
         O15       1.0000    0.41780   0.56700   0.48650   Biso      1.000     O          -0.700226           
         O16       1.0000    0.96280   0.17940   0.78480   Biso      1.000     O          -0.615367           
         O17       1.0000    0.74900   0.96250   0.29370   Biso      1.000     O          -0.67209  
         O18       1.0000    0.42280   0.60500   0.32010   Biso      1.000     O          -0.761562           
         O19       1.0000    0.58220   0.43300   0.98650   Biso      1.000     O          -0.700226           
         O20       1.0000    0.57720   0.39500   0.82010   Biso      1.000     O          -0.761562           
         O21       1.0000    0.25100   0.03750   0.79370   Biso      1.000     O          -0.67209  
         O22       1.0000    0.30500   0.80540   0.32720   Biso      1.000     O          -0.649122           
         O23       1.0000    0.30170   0.76950   0.49540   Biso      1.000     O          -0.627567           
         O24       1.0000    0.90800   0.41820   0.98930   Biso      1.000     O          -0.685351           
         O25       1.0000    0.78510   0.45090   0.95630   Biso      1.000     O          -0.7076319999999999           
         O26       1.0000    0.07720   0.10500   0.82010   Biso      1.000     O          -0.761562           
         O27       1.0000    0.75100   0.46250   0.79370   Biso      1.000     O          -0.67209  
         O28       1.0000    0.58430   0.15250   0.95870   Biso      1.000     O          -0.753957           
         O29       1.0000    0.07720   0.38230   0.79690   Biso      1.000     O          -0.7136399999999999           
         O30       1.0000    0.19830   0.26950   0.99540   Biso      1.000     O          -0.627567           
         O31       1.0000    0.24900   0.53750   0.29370   Biso      1.000     O          -0.67209  
         O32       1.0000    0.92280   0.89500   0.32010   Biso      1.000     O          -0.761562           
         O33       1.0000    0.21490   0.54910   0.45630   Biso      1.000     O          -0.7076319999999999           
         O34       1.0000    0.08430   0.34750   0.95870   Biso      1.000     O          -0.753957           
         O35       1.0000    0.53720   0.67940   0.28480   Biso      1.000     O          -0.615367           
         O36       1.0000    0.53370   0.65120   0.45380   Biso      1.000     O          -0.660004           
         O37       1.0000    0.03720   0.82060   0.28480   Biso      1.000     O          -0.615367           
         O38       1.0000    0.08220   0.06700   0.98650   Biso      1.000     O          -0.700226           
         O39       1.0000    0.91780   0.93300   0.48650   Biso      1.000     O          -0.700226           
         O40       1.0000    0.71490   0.95090   0.45630   Biso      1.000     O          -0.707633           
         O41       1.0000    0.42280   0.88230   0.29690   Biso      1.000     O          -0.7136399999999999           
         O42       1.0000    0.86800   0.38230   0.82060   Biso      1.000     O          -0.701259           
         O43       1.0000    0.36800   0.11770   0.82060   Biso      1.000     O          -0.701259           
         O44       1.0000    0.09200   0.58180   0.48930   Biso      1.000     O          -0.685351           
         O45       1.0000    0.13200   0.61770   0.32060   Biso      1.000     O          -0.701259           
         O46       1.0000    0.40800   0.08180   0.98930   Biso      1.000     O          -0.685351           
         O47       1.0000    0.63200   0.88230   0.32060   Biso      1.000     O          -0.701259           
         O48       1.0000    0.59200   0.91820   0.48930   Biso      1.000     O          -0.685351           
         S1        1.0000    0.38932   0.97852   0.14753   Biso      1.000     S          0.181444  
         S2        1.0000    0.79855   0.59177   0.64625   Biso      1.000     S          0.190721  
         S3        1.0000    0.96130   0.04065   0.63349   Biso      1.000     S          0.168568  
         S4        1.0000    0.53870   0.54065   0.13349   Biso      1.000     S          0.168571  
         S5        1.0000    0.70145   0.09177   0.14625   Biso      1.000     S          0.19072   
         S6        1.0000    0.46130   0.45935   0.63349   Biso      1.000     S          0.168568  
         S7        1.0000    0.20145   0.40823   0.14625   Biso      1.000     S          0.190719  
         S8        1.0000    0.29855   0.90823   0.64625   Biso      1.000     S          0.190721  
         S9        1.0000    0.11068   0.47852   0.64753   Biso      1.000     S          0.181444  
         S10       1.0000    0.03870   0.95935   0.13349   Biso      1.000     S          0.168569  
         S11       1.0000    0.61068   0.02148   0.64753   Biso      1.000     S          0.181444  
         S12       1.0000    0.88932   0.52148   0.14753   Biso      1.000     S          0.181444 