
##########################################################################
#               Crystallographic Information Format file
#               Produced by PyCifRW module
#
#  This is a CIF file.  CIF has been adopted by the International
#  Union of Crystallography as the standard for data archiving and
#  transmission.
#
#  For information on this file format, follow the CIF links at
#  http://www.iucr.org
##########################################################################

data_image0

_cell_length_a                          10.1588
_cell_length_b                          12.7919
_cell_length_c                          23.0055
_cell_angle_alpha                       104.316
_cell_angle_beta                        90
_cell_angle_gamma                       113.396
_symmetry_space_group_name_H-M          'P 1'
_symmetry_int_tables_number             1
loop_
  _symmetry_equiv_pos_as_xyz
         'x, y, z' 
loop_
  _atom_site_label
  _atom_site_occupancy
  _atom_site_fract_x
  _atom_site_fract_y
  _atom_site_fract_z
  _atom_site_thermal_displace_type
  _atom_site_B_iso_or_equiv
  _atom_site_type_symbol
  _atom_site_charge
         C1        1.0000    0.34320   0.99580   0.96060   Biso      1.000     C          -0.125871           
         C2        1.0000    0.50220   0.95160   0.02860   Biso      1.000     C          0.707918  
         C3        1.0000    0.54460   0.94380   0.92100   Biso      1.000     C          -0.11143499999999999          
         C4        1.0000    0.53620   0.00580   0.86960   Biso      1.000     C          -0.010447           
         C5        1.0000    0.33710   0.04520   0.90620   Biso      1.000     C          -0.064872           
         C6        1.0000    0.49600   0.00700   0.97590   Biso      1.000     C          -0.15076199999999998          
         C7        1.0000    0.37700   0.02680   0.79940   Biso      1.000     C          -0.38643  
         C8        1.0000    0.80760   0.51680   0.29740   Biso      1.000     C          0.724241  
         C9        1.0000    0.71230   0.52780   0.40040   Biso      1.000     C          -0.126539           
         C10       1.0000    0.68650   0.47840   0.45440   Biso      1.000     C          -0.007679999999999999         
         C11       1.0000    0.88280   0.43060   0.37570   Biso      1.000     C          -0.114424           
         C12       1.0000    0.84310   0.38720   0.42950   Biso      1.000     C          -0.055175           
         C13       1.0000    0.03720   0.98580   0.28240   Biso      1.000     C          -0.366138           
         C14       1.0000    0.76460   0.45600   0.34930   Biso      1.000     C          -0.150123           
         C15       1.0000    0.10310   0.01460   0.55500   Biso      1.000     C          0.604204  
         C16       1.0000    0.23860   0.18760   0.51390   Biso      1.000     C          -0.135988           
         C17       1.0000    0.24680   0.30080   0.50390   Biso      1.000     C          -0.055803           
         C18       1.0000    0.06550   0.20040   0.58990   Biso      1.000     C          -0.10700899999999999          
         C19       1.0000    0.09790   0.12240   0.53570   Biso      1.000     C          -0.11654400000000001          
         C20       1.0000    0.23750   0.49900   0.55010   Biso      1.000     C          -0.342212           
         C21       1.0000    0.13810   0.48100   0.80180   Biso      1.000     C          0.627905  
         C22       1.0000    0.12230   0.27620   0.74880   Biso      1.000     C          -0.138802           
         C23       1.0000    0.09910   0.15400   0.75330   Biso      1.000     C          -0.014547           
         C24       1.0000    0.98080   0.29760   0.83490   Biso      1.000     C          -0.127057           
         C25       1.0000    0.96460   0.17400   0.83650   Biso      1.000     C          -0.071873           
         C26       1.0000    0.78590   0.43000   0.53340   Biso      1.000     C          -0.35134  
         C27       1.0000    0.11890   0.36060   0.80890   Biso      1.000     C          -0.125579           
         C28       1.0000    0.24170   0.36060   0.30890   Biso      1.000     C          -0.124319           
         C29       1.0000    0.31680   0.29760   0.33490   Biso      1.000     C          -0.12768  
         C30       1.0000    0.44940   0.95160   0.52860   Biso      1.000     C          0.707492  
         C31       1.0000    0.39920   0.94380   0.42100   Biso      1.000     C          -0.10999500000000001          
         C32       1.0000    0.46960   0.00580   0.36960   Biso      1.000     C          -0.011821           
         C33       1.0000    0.70810   0.04520   0.40620   Biso      1.000     C          -0.064389           
         C34       1.0000    0.65260   0.99580   0.46060   Biso      1.000     C          -0.127002           
         C35       1.0000    0.51100   0.00700   0.47590   Biso      1.000     C          -0.150309           
         C36       1.0000    0.64980   0.02680   0.29940   Biso      1.000     C          -0.385416           
         C37       1.0000    0.70920   0.51680   0.79740   Biso      1.000     C          0.725302  
         C38       1.0000    0.81550   0.52780   0.90040   Biso      1.000     C          -0.126589           
         C39       1.0000    0.79190   0.47840   0.95440   Biso      1.000     C          -0.007162999999999999         
         C40       1.0000    0.54780   0.43060   0.87570   Biso      1.000     C          -0.11548  
         C41       1.0000    0.20940   0.17400   0.33650   Biso      1.000     C          -0.07367699999999999          
         C42       1.0000    0.54410   0.38720   0.92950   Biso      1.000     C          -0.05231  
         C43       1.0000    0.64410   0.43000   0.03340   Biso      1.000     C          -0.351091           
         C44       1.0000    0.91150   0.01460   0.05500   Biso      1.000     C          0.602472  
         C45       1.0000    0.94900   0.18760   0.01390   Biso      1.000     C          -0.136882           
         C46       1.0000    0.05400   0.30080   0.00390   Biso      1.000     C          -0.057856           
         C47       1.0000    0.13490   0.20040   0.08990   Biso      1.000     C          -0.106853           
         C48       1.0000    0.23590   0.30680   0.07620   Biso      1.000     C          -0.018725           
         C49       1.0000    0.02450   0.12240   0.03570   Biso      1.000     C          -0.114946           
         C50       1.0000    0.26150   0.49900   0.05010   Biso      1.000     C          -0.342073           
         C51       1.0000    0.34290   0.48100   0.30180   Biso      1.000     C          0.627961  
         C52       1.0000    0.15390   0.27620   0.24880   Biso      1.000     C          -0.14184000000000002          
         C53       1.0000    0.05490   0.15400   0.25330   Biso      1.000     C          -0.013850999999999999         
         C54       1.0000    0.69140   0.45600   0.84930   Biso      1.000     C          -0.14862899999999998          
         C55       1.0000    0.94860   0.98580   0.78240   Biso      1.000     C          -0.36627600000000005          
         C56       1.0000    0.07090   0.30680   0.57620   Biso      1.000     C          -0.018478           
         H1        1.0000    0.43580   0.05080   0.35280   Biso      1.000     H          0.113274  
         H2        1.0000    0.26480   0.96360   0.98120   Biso      1.000     H          0.12363099999999999           
         H3        1.0000    0.56210   0.09080   0.98780   Biso      1.000     H          0.125416  
         H4        1.0000    0.69830   0.59440   0.39830   Biso      1.000     H          0.132471  
         H5        1.0000    0.59880   0.45360   0.47050   Biso      1.000     H          0.119718  
         H6        1.0000    0.96990   0.44140   0.35970   Biso      1.000     H          0.129814  
         H7        1.0000    0.83620   0.31420   0.43290   Biso      1.000     H          0.11093800000000001           
         H8        1.0000    0.68290   0.37960   0.33240   Biso      1.000     H          0.13824   
         H9        1.0000    0.31140   0.16060   0.50740   Biso      1.000     H          0.12798199999999998           
         H10       1.0000    0.26340   0.31940   0.46720   Biso      1.000     H          0.11528900000000002           
         H11       1.0000    0.04520   0.18260   0.62660   Biso      1.000     H          0.123618  
         H12       1.0000    0.99270   0.32740   0.57680   Biso      1.000     H          0.127303  
         H13       1.0000    0.02000   0.09320   0.50290   Biso      1.000     H          0.11889000000000001           
         H14       1.0000    0.13720   0.29820   0.71290   Biso      1.000     H          0.114455  
         H15       1.0000    0.30890   0.88200   0.41790   Biso      1.000     H          0.139771  
         H16       1.0000    0.91500   0.32980   0.84800   Biso      1.000     H          0.11171600000000001           
         H17       1.0000    0.95410   0.14820   0.87140   Biso      1.000     H          0.105603  
         H18       1.0000    0.20020   0.37320   0.83670   Biso      1.000     H          0.115533  
         H19       1.0000    0.30830   0.10580   0.90670   Biso      1.000     H          0.126641  
         H20       1.0000    0.61500   0.05080   0.85280   Biso      1.000     H          0.112534  
         H21       1.0000    0.16250   0.11840   0.74200   Biso      1.000     H          0.131705  
         H22       1.0000    0.17300   0.37320   0.33670   Biso      1.000     H          0.11552799999999999           
         H23       1.0000    0.57310   0.88200   0.91790   Biso      1.000     H          0.140693  
         H24       1.0000    0.79750   0.10580   0.40670   Biso      1.000     H          0.126474  
         H25       1.0000    0.69880   0.96360   0.48120   Biso      1.000     H          0.124424  
         H26       1.0000    0.89610   0.59440   0.89830   Biso      1.000     H          0.13211199999999998           
         H27       1.0000    0.85480   0.45360   0.97050   Biso      1.000     H          0.119075  
         H28       1.0000    0.47150   0.44140   0.85970   Biso      1.000     H          0.129588  
         H29       1.0000    0.47800   0.31420   0.93290   Biso      1.000     H          0.10941   
         H30       1.0000    0.69670   0.37960   0.83240   Biso      1.000     H          0.137871  
         H31       1.0000    0.84920   0.16060   0.00740   Biso      1.000     H          0.128779  
         H32       1.0000    0.52870   0.09080   0.48780   Biso      1.000     H          0.1248    
         H33       1.0000    0.13740   0.18260   0.12660   Biso      1.000     H          0.12371099999999999           
         H34       1.0000    0.33470   0.32740   0.07680   Biso      1.000     H          0.126885  
         H35       1.0000    0.07320   0.09320   0.00290   Biso      1.000     H          0.11890099999999999           
         H36       1.0000    0.16100   0.29820   0.21290   Biso      1.000     H          0.11590999999999999           
         H37       1.0000    0.95590   0.11840   0.24200   Biso      1.000     H          0.131527  
         H38       1.0000    0.41480   0.32980   0.34800   Biso      1.000     H          0.11196300000000001           
         H39       1.0000    0.05600   0.31940   0.96720   Biso      1.000     H          0.116303  
         H40       1.0000    0.19410   0.14820   0.37140   Biso      1.000     H          0.10743699999999999           
         N1        1.0000    0.96750   0.10160   0.77690   Biso      1.000     N          0.078274  
         N2        1.0000    0.22530   0.38400   0.56030   Biso      1.000     N          0.004452  
         N3        1.0000    0.81540   0.47480   0.47780   Biso      1.000     N          0.065246  
         N4        1.0000    0.38410   0.98100   0.85290   Biso      1.000     N          0.075612  
         N5        1.0000    0.13410   0.10160   0.27690   Biso      1.000     N          0.078912  
         N6        1.0000    0.15870   0.38400   0.06030   Biso      1.000     N          0.004841  
         N7        1.0000    0.65940   0.47480   0.97780   Biso      1.000     N          0.064481  
         N8        1.0000    0.59690   0.98100   0.35290   Biso      1.000     N          0.075461  
         O1        1.0000    0.18310   0.83100   0.71920   Biso      1.000     O          -0.887544           
         O2        1.0000    0.87320   0.75000   0.23100   Biso      1.000     O          -0.955126           
         O3        1.0000    0.04660   0.47860   0.76430   Biso      1.000     O          -0.709757           
         O4        1.0000    0.24320   0.57360   0.83280   Biso      1.000     O          -0.6507390000000001           
         O5        1.0000    0.57990   0.89980   0.02860   Biso      1.000     O          -0.618251           
         O6        1.0000    0.19120   0.03780   0.59990   Biso      1.000     O          -0.61455  
         O7        1.0000    0.97250   0.89240   0.66360   Biso      1.000     O          -0.815952           
         O8        1.0000    0.11060   0.83200   0.19690   Biso      1.000     O          -0.9708370000000001           
         O9        1.0000    0.90260   0.49800   0.26810   Biso      1.000     O          -0.7081609999999999           
         O10       1.0000    0.58910   0.96660   0.17520   Biso      1.000     O          -0.8858010000000001           
         O11       1.0000    0.31990   0.89980   0.52860   Biso      1.000     O          -0.618239           
         O12       1.0000    0.19860   0.64620   0.14190   Biso      1.000     O          -0.939318           
         O13       1.0000    0.42430   0.97280   0.06990   Biso      1.000     O          -0.7400399999999999           
         O14       1.0000    0.40910   0.85360   0.23390   Biso      1.000     O          -0.8290360000000001           
         O15       1.0000    0.43110   0.72860   0.10130   Biso      1.000     O          -0.968671           
         O16       1.0000    0.39190   0.58300   0.16780   Biso      1.000     O          -0.837586           
         O17       1.0000    0.67330   0.64740   0.10980   Biso      1.000     O          -0.9163540000000001           
         O18       1.0000    0.33040   0.57360   0.33280   Biso      1.000     O          -0.651103           
         O19       1.0000    0.70720   0.50200   0.15580   Biso      1.000     O          -0.903272           
         O20       1.0000    0.82870   0.57040   0.78830   Biso      1.000     O          -0.671221           
         O21       1.0000    0.88730   0.90620   0.02790   Biso      1.000     O          -0.680607           
         O22       1.0000    0.54850   0.97280   0.56990   Biso      1.000     O          -0.7393930000000001           
         O23       1.0000    0.91990   0.89240   0.16360   Biso      1.000     O          -0.815349           
         O24       1.0000    0.64790   0.83100   0.21920   Biso      1.000     O          -0.888092           
         O25       1.0000    0.84660   0.03780   0.09990   Biso      1.000     O          -0.613881           
         O26       1.0000    0.90280   0.60900   0.09830   Biso      1.000     O          -0.806351           
         O27       1.0000    0.01890   0.90620   0.52790   Biso      1.000     O          -0.680892           
         O28       1.0000    0.43200   0.47860   0.26430   Biso      1.000     O          -0.709758           
         O29       1.0000    0.37750   0.96660   0.67520   Biso      1.000     O          -0.8854870000000001           
         O30       1.0000    0.70620   0.60900   0.59830   Biso      1.000     O          -0.8057989999999999           
         O31       1.0000    0.79480   0.50200   0.65580   Biso      1.000     O          -0.9032049999999999           
         O32       1.0000    0.97410   0.64740   0.60980   Biso      1.000     O          -0.916062           
         O33       1.0000    0.19110   0.58300   0.66780   Biso      1.000     O          -0.837564           
         O34       1.0000    0.29750   0.72860   0.60130   Biso      1.000     O          -0.968209           
         O35       1.0000    0.44450   0.85360   0.73390   Biso      1.000     O          -0.8298690000000001           
         O36       1.0000    0.44760   0.64620   0.64190   Biso      1.000     O          -0.939475           
         O37       1.0000    0.72140   0.83200   0.69690   Biso      1.000     O          -0.970699           
         O38       1.0000    0.87680   0.75000   0.73100   Biso      1.000     O          -0.955908           
         O39       1.0000    0.59540   0.49800   0.76810   Biso      1.000     O          -0.70831  
         O40       1.0000    0.74170   0.57040   0.28830   Biso      1.000     O          -0.670339           
         P1        1.0000    0.88240   0.86020   0.71376   Biso      1.000     P          1.33894   
         P2        1.0000    0.29130   0.61600   0.62056   Biso      1.000     P          1.359018  
         P3        1.0000    0.81670   0.55520   0.60114   Biso      1.000     P          1.230594  
         P4        1.0000    0.32470   0.61600   0.12056   Biso      1.000     P          1.359591  
         P5        1.0000    0.97780   0.86020   0.21376   Biso      1.000     P          1.337975  
         P6        1.0000    0.73850   0.55520   0.10114   Biso      1.000     P          1.230944  
         P7        1.0000    0.57000   0.91060   0.22913   Biso      1.000     P          1.253052  
         P8        1.0000    0.34060   0.91060   0.72913   Biso      1.000     P          1.253927  
         Pr1       1.0000    0.31312   0.87196   0.14042   Biso      1.000     Pr          2.178085  
         Pr2       1.0000    0.99368   0.60958   0.19696   Biso      1.000     Pr          2.187251  
         Pr3       1.0000    0.68862   0.83450   0.10034   Biso      1.000     Pr          2.215373  
         Pr4       1.0000    0.61383   0.63658   0.22564   Biso      1.000     Pr          2.280261  
         Pr5       1.0000    0.55884   0.87196   0.64042   Biso      1.000     Pr          2.17837   
         Pr6       1.0000    0.61590   0.60958   0.69696   Biso      1.000     Pr          2.187654  
         Pr7       1.0000    0.14588   0.83450   0.60034   Biso      1.000     Pr          2.21515   
         Pr8       1.0000    0.02275   0.63658   0.72564   Biso      1.000     Pr          2.280216 