
##########################################################################
#               Crystallographic Information Format file
#               Produced by PyCifRW module
#
#  This is a CIF file.  CIF has been adopted by the International
#  Union of Crystallography as the standard for data archiving and
#  transmission.
#
#  For information on this file format, follow the CIF links at
#  http://www.iucr.org
##########################################################################

data_image0

_cell_length_a                          11.2562
_cell_length_b                          13.1744
_cell_length_c                          20.3965
_cell_angle_alpha                       90
_cell_angle_beta                        90
_cell_angle_gamma                       90
_symmetry_space_group_name_H-M          'P 1'
_symmetry_int_tables_number             1
loop_
  _symmetry_equiv_pos_as_xyz
         'x, y, z' 
loop_
  _atom_site_label
  _atom_site_occupancy
  _atom_site_fract_x
  _atom_site_fract_y
  _atom_site_fract_z
  _atom_site_thermal_displace_type
  _atom_site_B_iso_or_equiv
  _atom_site_type_symbol
  _atom_site_charge
         C1        1.0000    0.74250   0.11100   0.83972   Biso      1.000     C          0.618268  
         C2        1.0000    0.32020   0.67940   0.10605   Biso      1.000     C          0.611729  
         C3        1.0000    0.54680   0.94110   0.12467   Biso      1.000     C          -0.22956700000000002          
         C4        1.0000    0.53080   0.89350   0.06331   Biso      1.000     C          -0.00542  
         C5        1.0000    0.45970   0.80760   0.05776   Biso      1.000     C          -0.136525           
         C6        1.0000    0.40020   0.77050   0.11255   Biso      1.000     C          -0.015319           
         C7        1.0000    0.41230   0.81900   0.17289   Biso      1.000     C          -0.195163           
         C8        1.0000    0.48580   0.90370   0.17844   Biso      1.000     C          0.274892  
         C9        1.0000    0.60750   0.39780   0.69389   Biso      1.000     C          0.573312  
         C10       1.0000    0.87860   0.25230   0.80909   Biso      1.000     C          -0.22210300000000002          
         C11       1.0000    0.76660   0.20680   0.80279   Biso      1.000     C          -0.027160000000000004         
         C12       1.0000    0.67950   0.25240   0.76396   Biso      1.000     C          -0.146361           
         C13       1.0000    0.70370   0.34350   0.73242   Biso      1.000     C          0.018861000000000003          
         C14       1.0000    0.81580   0.38890   0.73747   Biso      1.000     C          -0.234224           
         C15       1.0000    0.90250   0.34300   0.77581   Biso      1.000     C          0.263481  
         C16       1.0000    0.05570   0.46400   0.74873   Biso      1.000     C          0.163795  
         C17       1.0000    0.08790   0.56350   0.99710   Biso      1.000     C          0.637127  
         C18       1.0000    0.82020   0.82060   0.89395   Biso      1.000     C          0.611729  
         C19       1.0000    0.04680   0.55890   0.87533   Biso      1.000     C          -0.22956700000000002          
         C20       1.0000    0.95970   0.69240   0.94224   Biso      1.000     C          -0.136525           
         C21       1.0000    0.90020   0.72950   0.88745   Biso      1.000     C          -0.015319           
         C22       1.0000    0.91230   0.68100   0.82711   Biso      1.000     C          -0.195163           
         C23       1.0000    0.98580   0.59630   0.82156   Biso      1.000     C          0.274892  
         C24       1.0000    0.75750   0.88900   0.33972   Biso      1.000     C          0.618268  
         C25       1.0000    0.58790   0.93650   0.00290   Biso      1.000     C          0.637128  
         C26       1.0000    0.89250   0.60220   0.19389   Biso      1.000     C          0.573312  
         C27       1.0000    0.55570   0.03600   0.25127   Biso      1.000     C          0.163795  
         C28       1.0000    0.31580   0.11110   0.26253   Biso      1.000     C          -0.23422300000000001          
         C29       1.0000    0.25750   0.61100   0.66028   Biso      1.000     C          0.618268  
         C30       1.0000    0.39250   0.89780   0.80611   Biso      1.000     C          0.573313  
         C31       1.0000    0.12140   0.75230   0.69091   Biso      1.000     C          -0.22210300000000002          
         C32       1.0000    0.23340   0.70680   0.69721   Biso      1.000     C          -0.027160000000000004         
         C33       1.0000    0.32050   0.75240   0.73604   Biso      1.000     C          -0.146361           
         C34       1.0000    0.29630   0.84350   0.76758   Biso      1.000     C          0.018861000000000003          
         C35       1.0000    0.18420   0.88890   0.76253   Biso      1.000     C          -0.23422300000000001          
         C36       1.0000    0.09750   0.84300   0.72419   Biso      1.000     C          0.263481  
         C37       1.0000    0.94430   0.96400   0.75127   Biso      1.000     C          0.163795  
         C38       1.0000    0.91210   0.06350   0.50290   Biso      1.000     C          0.637128  
         C39       1.0000    0.17980   0.32060   0.60605   Biso      1.000     C          0.611729  
         C40       1.0000    0.95320   0.05890   0.62467   Biso      1.000     C          -0.22956700000000002          
         C41       1.0000    0.96920   0.10650   0.56331   Biso      1.000     C          -0.00542  
         C42       1.0000    0.04030   0.19240   0.55776   Biso      1.000     C          -0.136525           
         C43       1.0000    0.09980   0.22950   0.61255   Biso      1.000     C          -0.015319           
         C44       1.0000    0.08770   0.18100   0.67289   Biso      1.000     C          -0.195163           
         C45       1.0000    0.01420   0.09630   0.67844   Biso      1.000     C          0.274892  
         C46       1.0000    0.24250   0.38900   0.16028   Biso      1.000     C          0.618268  
         C47       1.0000    0.10750   0.10220   0.30611   Biso      1.000     C          0.573312  
         C48       1.0000    0.37860   0.24770   0.19091   Biso      1.000     C          -0.22210300000000002          
         C49       1.0000    0.26660   0.29320   0.19721   Biso      1.000     C          -0.027160000000000004         
         C50       1.0000    0.17950   0.24760   0.23604   Biso      1.000     C          -0.146361           
         C51       1.0000    0.20370   0.15650   0.26758   Biso      1.000     C          0.018861000000000003          
         C52       1.0000    0.40250   0.15700   0.22419   Biso      1.000     C          0.263481  
         C53       1.0000    0.62140   0.74770   0.30909   Biso      1.000     C          -0.22210300000000002          
         C54       1.0000    0.03080   0.60650   0.93669   Biso      1.000     C          -0.00542  
         C55       1.0000    0.82050   0.74760   0.26396   Biso      1.000     C          -0.146361           
         C56       1.0000    0.73340   0.79320   0.30279   Biso      1.000     C          -0.027160000000000004         
         C57       1.0000    0.51420   0.40370   0.32156   Biso      1.000     C          0.274892  
         C58       1.0000    0.58770   0.31900   0.32711   Biso      1.000     C          -0.195163           
         C59       1.0000    0.59980   0.27050   0.38745   Biso      1.000     C          -0.015319999999999999         
         C60       1.0000    0.54030   0.30760   0.44224   Biso      1.000     C          -0.136525           
         C61       1.0000    0.45320   0.44110   0.37533   Biso      1.000     C          -0.22956700000000002          
         C62       1.0000    0.46920   0.39350   0.43669   Biso      1.000     C          -0.00542  
         C63       1.0000    0.67980   0.17940   0.39395   Biso      1.000     C          0.611729  
         C64       1.0000    0.41210   0.43650   0.49710   Biso      1.000     C          0.637127  
         C65       1.0000    0.44430   0.53600   0.24873   Biso      1.000     C          0.163795  
         C66       1.0000    0.59750   0.65700   0.27581   Biso      1.000     C          0.26348   
         C67       1.0000    0.68420   0.61110   0.23747   Biso      1.000     C          -0.23422199999999999          
         C68       1.0000    0.79630   0.65650   0.23242   Biso      1.000     C          0.018861000000000003          
         H1        1.0000    0.95170   0.72560   0.98330   Biso      1.000     H          0.133048  
         H2        1.0000    0.83240   0.45040   0.71490   Biso      1.000     H          0.139389  
         H3        1.0000    0.14010   0.47720   0.75930   Biso      1.000     H          0.080552  
         H4        1.0000    0.09860   0.50230   0.87100   Biso      1.000     H          0.136802  
         H5        1.0000    0.60390   0.22120   0.75910   Biso      1.000     H          0.137751  
         H6        1.0000    0.87070   0.70570   0.78990   Biso      1.000     H          0.150842  
         H7        1.0000    0.54830   0.27440   0.48330   Biso      1.000     H          0.133048  
         H8        1.0000    0.89610   0.77880   0.25910   Biso      1.000     H          0.137751  
         H9        1.0000    0.66760   0.54960   0.21490   Biso      1.000     H          0.139389  
         H10       1.0000    0.44890   0.55480   0.20180   Biso      1.000     H          0.074544  
         H11       1.0000    0.35990   0.52280   0.25930   Biso      1.000     H          0.080552  
         H12       1.0000    0.40140   0.49770   0.37100   Biso      1.000     H          0.136802  
         H13       1.0000    0.93790   0.22180   0.83580   Biso      1.000     H          0.13863   
         H14       1.0000    0.62930   0.29430   0.28990   Biso      1.000     H          0.150842  
         H15       1.0000    0.56210   0.77820   0.33580   Biso      1.000     H          0.13863   
         H16       1.0000    0.37070   0.79430   0.21010   Biso      1.000     H          0.150842  
         H17       1.0000    0.05110   0.44520   0.70180   Biso      1.000     H          0.074544  
         H18       1.0000    0.59860   0.99770   0.12900   Biso      1.000     H          0.136802  
         H19       1.0000    0.45170   0.77440   0.01670   Biso      1.000     H          0.133048  
         H20       1.0000    0.06210   0.72180   0.66420   Biso      1.000     H          0.13863   
         H21       1.0000    0.39610   0.72120   0.74090   Biso      1.000     H          0.137751  
         H22       1.0000    0.94890   0.94520   0.79820   Biso      1.000     H          0.074544  
         H23       1.0000    0.85990   0.97720   0.74070   Biso      1.000     H          0.080552  
         H24       1.0000    0.90140   0.00230   0.62900   Biso      1.000     H          0.136802  
         H25       1.0000    0.16760   0.95040   0.78510   Biso      1.000     H          0.139389  
         H26       1.0000    0.12930   0.20570   0.71010   Biso      1.000     H          0.150842  
         H27       1.0000    0.43790   0.27820   0.16420   Biso      1.000     H          0.13863   
         H28       1.0000    0.10390   0.27880   0.24090   Biso      1.000     H          0.137751  
         H29       1.0000    0.33240   0.04960   0.28510   Biso      1.000     H          0.139389  
         H30       1.0000    0.55110   0.05480   0.29820   Biso      1.000     H          0.074544  
         H31       1.0000    0.04830   0.22560   0.51670   Biso      1.000     H          0.133048  
         H32       1.0000    0.64010   0.02280   0.24070   Biso      1.000     H          0.080552  
         O1        1.0000    0.48922   0.94539   0.24102   Biso      1.000     O          -0.23465100000000003          
         O2        1.0000    0.66260   0.00790   0.01036   Biso      1.000     O          -0.612528           
         O3        1.0000    0.55588   0.89966   0.94912   Biso      1.000     O          -0.50664  
         O4        1.0000    0.32480   0.63095   0.05265   Biso      1.000     O          -0.608528           
         O5        1.0000    0.82214   0.08120   0.87877   Biso      1.000     O          -0.618333           
         O6        1.0000    0.64499   0.06646   0.82900   Biso      1.000     O          -0.507031           
         O7        1.0000    0.51506   0.11840   0.21297   Biso      1.000     O          -0.238339           
         O8        1.0000    0.50425   0.35644   0.69572   Biso      1.000     O          -0.573912           
         O9        1.0000    0.25310   0.65823   0.15422   Biso      1.000     O          -0.517818           
         O10       1.0000    0.13001   0.02233   0.33474   Biso      1.000     O          -0.5521020000000001           
         O11       1.0000    0.83740   0.99210   0.51036   Biso      1.000     O          -0.612528           
         O12       1.0000    0.14499   0.43354   0.17100   Biso      1.000     O          -0.50703  
         O13       1.0000    0.32214   0.41880   0.12123   Biso      1.000     O          -0.618333           
         O14       1.0000    0.49575   0.85644   0.80428   Biso      1.000     O          -0.573912           
         O15       1.0000    0.36999   0.97767   0.83474   Biso      1.000     O          -0.5521020000000001           
         O16       1.0000    0.98494   0.88160   0.71297   Biso      1.000     O          -0.238339           
         O17       1.0000    0.01078   0.05461   0.74102   Biso      1.000     O          -0.23465100000000003          
         O18       1.0000    0.94412   0.10034   0.44912   Biso      1.000     O          -0.5066390000000001           
         O19       1.0000    0.17520   0.36905   0.55265   Biso      1.000     O          -0.608528           
         O20       1.0000    0.63001   0.47767   0.66526   Biso      1.000     O          -0.5521020000000001           
         O21       1.0000    0.24690   0.34177   0.65422   Biso      1.000     O          -0.517818           
         O22       1.0000    0.00425   0.14356   0.30428   Biso      1.000     O          -0.573912           
         O23       1.0000    0.01506   0.38160   0.78703   Biso      1.000     O          -0.238339           
         O24       1.0000    0.17786   0.58120   0.62123   Biso      1.000     O          -0.618332           
         O25       1.0000    0.16260   0.49210   0.98964   Biso      1.000     O          -0.612528           
         O26       1.0000    0.35501   0.56646   0.67100   Biso      1.000     O          -0.507031           
         O27       1.0000    0.74690   0.15823   0.34578   Biso      1.000     O          -0.517818           
         O28       1.0000    0.67520   0.13095   0.44735   Biso      1.000     O          -0.608528           
         O29       1.0000    0.98922   0.55461   0.75898   Biso      1.000     O          -0.23465100000000003          
         O30       1.0000    0.33740   0.50790   0.48964   Biso      1.000     O          -0.612528           
         O31       1.0000    0.51078   0.44539   0.25898   Biso      1.000     O          -0.23465100000000003          
         O32       1.0000    0.48494   0.61840   0.28703   Biso      1.000     O          -0.238339           
         O33       1.0000    0.44412   0.39966   0.55088   Biso      1.000     O          -0.50664  
         O34       1.0000    0.99575   0.64356   0.19572   Biso      1.000     O          -0.573912           
         O35       1.0000    0.85501   0.93354   0.32900   Biso      1.000     O          -0.50703  
         O36       1.0000    0.67786   0.91880   0.37877   Biso      1.000     O          -0.618333           
         O37       1.0000    0.75310   0.84177   0.84578   Biso      1.000     O          -0.517818           
         O38       1.0000    0.82480   0.86905   0.94735   Biso      1.000     O          -0.608528           
         O39       1.0000    0.05588   0.60034   0.05088   Biso      1.000     O          -0.5066390000000001           
         O40       1.0000    0.86999   0.52233   0.16526   Biso      1.000     O          -0.5521020000000001           
         Zn1       1.0000    0.38960   0.42795   0.64066   Biso      1.000     Zn          0.925683  
         Zn2       1.0000    0.17718   0.52153   0.53225   Biso      1.000     Zn          1.1030149999999999  
         Zn3       1.0000    0.11040   0.57205   0.14066   Biso      1.000     Zn          0.925682  
         Zn4       1.0000    0.32282   0.47847   0.03225   Biso      1.000     Zn          1.1030149999999999  
         Zn5       1.0000    0.61040   0.92795   0.85934   Biso      1.000     Zn          0.925682  
         Zn6       1.0000    0.82282   0.02153   0.96775   Biso      1.000     Zn          1.1030149999999999  
         Zn7       1.0000    0.88960   0.07205   0.35934   Biso      1.000     Zn          0.925682  
         Zn8       1.0000    0.67718   0.97847   0.46775   Biso      1.000     Zn          1.103016 