
##########################################################################
#               Crystallographic Information Format file
#               Produced by PyCifRW module
#
#  This is a CIF file.  CIF has been adopted by the International
#  Union of Crystallography as the standard for data archiving and
#  transmission.
#
#  For information on this file format, follow the CIF links at
#  http://www.iucr.org
##########################################################################

data_image0

_cell_length_a                          10.1457
_cell_length_b                          10.8728
_cell_length_c                          13.7552
_cell_angle_alpha                       79.123
_cell_angle_beta                        78.844
_cell_angle_gamma                       86.317
_symmetry_space_group_name_H-M          'P 1'
_symmetry_int_tables_number             1
loop_
  _symmetry_equiv_pos_as_xyz
         'x, y, z' 
loop_
  _atom_site_label
  _atom_site_occupancy
  _atom_site_fract_x
  _atom_site_fract_y
  _atom_site_fract_z
  _atom_site_thermal_displace_type
  _atom_site_B_iso_or_equiv
  _atom_site_type_symbol
  _atom_site_charge
         C1        1.0000    0.01760   0.74280   0.71860   Biso      1.000     C          -0.154496           
         C2        1.0000    0.01150   0.53450   0.81020   Biso      1.000     C          -0.124953           
         C3        1.0000    0.01520   0.49350   0.72210   Biso      1.000     C          0.08955199999999999           
         C4        1.0000    0.02480   0.69220   0.63290   Biso      1.000     C          0.09915800000000001           
         C5        1.0000    0.00910   0.66070   0.80980   Biso      1.000     C          0.043676  
         C6        1.0000    0.00610   0.70360   0.90810   Biso      1.000     C          0.487759  
         C7        1.0000    0.29790   0.52670   0.27380   Biso      1.000     C          -0.025977999999999998         
         C8        1.0000    0.32110   0.58260   0.17230   Biso      1.000     C          -0.202069           
         C9        1.0000    0.33610   0.50930   0.09810   Biso      1.000     C          0.280557  
         C10       1.0000    0.33470   0.37960   0.12570   Biso      1.000     C          -0.224244           
         C11       1.0000    0.31620   0.32510   0.22660   Biso      1.000     C          0.002309  
         C12       1.0000    0.29650   0.39730   0.30070   Biso      1.000     C          -0.155637           
         C13       1.0000    0.31350   0.18570   0.25310   Biso      1.000     C          0.584148  
         C14       1.0000    0.26670   0.60600   0.35460   Biso      1.000     C          0.66755   
         C15       1.0000    0.33470   0.51700   0.91900   Biso      1.000     C          0.497623  
         C16       1.0000    0.34800   0.60000   0.81690   Biso      1.000     C          0.001766  
         C17       1.0000    0.34900   0.72980   0.79850   Biso      1.000     C          -0.183869           
         C18       1.0000    0.35380   0.79350   0.70230   Biso      1.000     C          0.084539  
         C19       1.0000    0.36020   0.61460   0.63940   Biso      1.000     C          0.076528  
         C20       1.0000    0.35490   0.54160   0.73430   Biso      1.000     C          -0.16181600000000002          
         C21       1.0000    0.97430   0.87930   0.16810   Biso      1.000     C          -0.020472999999999998         
         C22       1.0000    0.84230   0.89490   0.21610   Biso      1.000     C          -0.143398           
         C23       1.0000    0.73810   0.88590   0.16750   Biso      1.000     C          -0.003295           
         C24       1.0000    0.76580   0.85720   0.07000   Biso      1.000     C          -0.15683699999999998          
         C25       1.0000    0.89670   0.83750   0.02360   Biso      1.000     C          0.261424  
         C26       1.0000    0.00080   0.85170   0.07200   Biso      1.000     C          -0.19076300000000002          
         C27       1.0000    0.70210   0.47330   0.72620   Biso      1.000     C          -0.025977999999999998         
         C28       1.0000    0.09110   0.89100   0.21670   Biso      1.000     C          0.576444  
         C29       1.0000    0.67890   0.41740   0.82770   Biso      1.000     C          -0.202069           
         C30       1.0000    0.66530   0.62040   0.87430   Biso      1.000     C          -0.224244           
         C31       1.0000    0.98850   0.46550   0.18980   Biso      1.000     C          -0.124953           
         C32       1.0000    0.98480   0.50650   0.27790   Biso      1.000     C          0.08955199999999999           
         C33       1.0000    0.97520   0.30780   0.36710   Biso      1.000     C          0.09915700000000001           
         C34       1.0000    0.98240   0.25720   0.28140   Biso      1.000     C          -0.154496           
         C35       1.0000    0.99090   0.33930   0.19020   Biso      1.000     C          0.043676  
         C36       1.0000    0.99390   0.29640   0.09190   Biso      1.000     C          0.487759  
         C37       1.0000    0.40620   0.09830   0.78460   Biso      1.000     C          0.588043  
         C38       1.0000    0.90890   0.10900   0.78330   Biso      1.000     C          0.576444  
         C39       1.0000    0.99920   0.14830   0.92800   Biso      1.000     C          -0.19076500000000002          
         C40       1.0000    0.10330   0.16250   0.97640   Biso      1.000     C          0.261422  
         C41       1.0000    0.23420   0.14280   0.93000   Biso      1.000     C          -0.156833           
         C42       1.0000    0.66390   0.49070   0.90190   Biso      1.000     C          0.280557  
         C43       1.0000    0.26190   0.11410   0.83250   Biso      1.000     C          -0.0033   
         C44       1.0000    0.02570   0.12070   0.83190   Biso      1.000     C          -0.020472           
         C45       1.0000    0.64510   0.45840   0.26570   Biso      1.000     C          -0.16181600000000002          
         C46       1.0000    0.63980   0.38540   0.36060   Biso      1.000     C          0.076528  
         C47       1.0000    0.64620   0.20650   0.29770   Biso      1.000     C          0.08453200000000001           
         C48       1.0000    0.65100   0.27020   0.20150   Biso      1.000     C          -0.183862           
         C49       1.0000    0.65200   0.40000   0.18310   Biso      1.000     C          0.0017649999999999999         
         C50       1.0000    0.66530   0.48300   0.08100   Biso      1.000     C          0.497623  
         C51       1.0000    0.73330   0.39400   0.64540   Biso      1.000     C          0.667549  
         C52       1.0000    0.68650   0.81430   0.74690   Biso      1.000     C          0.584147  
         C53       1.0000    0.70350   0.60270   0.69930   Biso      1.000     C          -0.155637           
         C54       1.0000    0.68380   0.67490   0.77340   Biso      1.000     C          0.002309  
         C55       1.0000    0.15770   0.10510   0.78390   Biso      1.000     C          -0.143393           
         C56       1.0000    0.59380   0.90170   0.21540   Biso      1.000     C          0.588043  
         Co1       1.0000    0.00000   0.50000   0.50000   Biso      1.000     Co          0.878174  
         Gd1       1.0000    0.31927   0.92246   0.29711   Biso      1.000     Gd          1.9699970000000002  
         Gd2       1.0000    0.68073   0.07754   0.70289   Biso      1.000     Gd          1.9699959999999999  
         H1        1.0000    0.62330   0.35390   0.01730   Biso      1.000     H          0.31094299999999997           
         H2        1.0000    0.01390   0.40770   0.72390   Biso      1.000     H          0.093027  
         H3        1.0000    0.03300   0.74680   0.57140   Biso      1.000     H          0.097247  
         H4        1.0000    0.01830   0.82890   0.71540   Biso      1.000     H          0.137575  
         H5        1.0000    0.08930   0.84260   0.03970   Biso      1.000     H          0.13619   
         H6        1.0000    0.69570   0.85150   0.03660   Biso      1.000     H          0.147674  
         H7        1.0000    0.82450   0.91160   0.28140   Biso      1.000     H          0.129907  
         H8        1.0000    0.35580   0.45460   0.74260   Biso      1.000     H          0.130709  
         H9        1.0000    0.36530   0.57440   0.58480   Biso      1.000     H          0.093168  
         H10       1.0000    0.35370   0.88050   0.69170   Biso      1.000     H          0.09093899999999999           
         H11       1.0000    0.34640   0.77310   0.85110   Biso      1.000     H          0.12579500000000002           
         H12       1.0000    0.28240   0.35950   0.36830   Biso      1.000     H          0.12774000000000002           
         H13       1.0000    0.12040   0.16040   0.11830   Biso      1.000     H          0.305693  
         H14       1.0000    0.32640   0.66920   0.15420   Biso      1.000     H          0.145652  
         H15       1.0000    0.01050   0.47750   0.86990   Biso      1.000     H          0.141568  
         H16       1.0000    0.37670   0.64610   0.98270   Biso      1.000     H          0.31094299999999997           
         H17       1.0000    0.34610   0.32970   0.07650   Biso      1.000     H          0.14186300000000002           
         H18       1.0000    0.67360   0.33080   0.84580   Biso      1.000     H          0.145652  
         H19       1.0000    0.87960   0.83960   0.88170   Biso      1.000     H          0.305693  
         H20       1.0000    0.98950   0.52250   0.13010   Biso      1.000     H          0.141568  
         H21       1.0000    0.98610   0.59230   0.27610   Biso      1.000     H          0.093027  
         H22       1.0000    0.96700   0.25320   0.42860   Biso      1.000     H          0.097247  
         H23       1.0000    0.98170   0.17110   0.28460   Biso      1.000     H          0.137575  
         H24       1.0000    0.91070   0.15740   0.96030   Biso      1.000     H          0.13619   
         H25       1.0000    0.30430   0.14850   0.96340   Biso      1.000     H          0.147674  
         H26       1.0000    0.64420   0.54540   0.25740   Biso      1.000     H          0.130709  
         H27       1.0000    0.63470   0.42560   0.41520   Biso      1.000     H          0.093167  
         H28       1.0000    0.64630   0.11950   0.30830   Biso      1.000     H          0.09094   
         H29       1.0000    0.65360   0.22690   0.14890   Biso      1.000     H          0.12579400000000002           
         H30       1.0000    0.71760   0.64050   0.63170   Biso      1.000     H          0.12774000000000002           
         H31       1.0000    0.65390   0.67030   0.92350   Biso      1.000     H          0.14186300000000002           
         H32       1.0000    0.17550   0.08840   0.71860   Biso      1.000     H          0.129907  
         N1        1.0000    0.64150   0.26120   0.37710   Biso      1.000     N          -0.27662600000000004          
         N2        1.0000    0.97930   0.42990   0.36710   Biso      1.000     N          -0.266639           
         N3        1.0000    0.64720   0.43060   0.00360   Biso      1.000     N          -0.4195   
         N4        1.0000    0.07940   0.20000   0.07200   Biso      1.000     N          -0.41876899999999995          
         N5        1.0000    0.92060   0.80000   0.92800   Biso      1.000     N          -0.41877  
         N6        1.0000    0.35850   0.73880   0.62290   Biso      1.000     N          -0.276627           
         N7        1.0000    0.35280   0.56940   0.99640   Biso      1.000     N          -0.4195   
         N8        1.0000    0.02070   0.57010   0.63290   Biso      1.000     N          -0.266639           
         O1        1.0000    0.43960   0.09940   0.69150   Biso      1.000     O          -0.647695           
         O2        1.0000    0.79250   0.11480   0.83350   Biso      1.000     O          -0.597363           
         O3        1.0000    0.92670   0.09460   0.69160   Biso      1.000     O          -0.6857979999999999           
         O4        1.0000    0.69110   0.59130   0.07380   Biso      1.000     O          -0.45647299999999996          
         O5        1.0000    0.70660   0.87730   0.81030   Biso      1.000     O          -0.628533           
         O6        1.0000    0.67140   0.87040   0.66160   Biso      1.000     O          -0.642572           
         O7        1.0000    0.68130   0.28770   0.66410   Biso      1.000     O          -0.672553           
         O8        1.0000    0.80770   0.43680   0.56440   Biso      1.000     O          -0.564724           
         O9        1.0000    0.07590   0.64880   0.96680   Biso      1.000     O          -0.468149           
         O10       1.0000    0.56040   0.90060   0.30850   Biso      1.000     O          -0.647695           
         O11       1.0000    0.20750   0.88520   0.16650   Biso      1.000     O          -0.597363           
         O12       1.0000    0.07330   0.90540   0.30840   Biso      1.000     O          -0.6857979999999999           
         O13       1.0000    0.30890   0.40870   0.92620   Biso      1.000     O          -0.45647299999999996          
         O14       1.0000    0.29340   0.12270   0.18970   Biso      1.000     O          -0.628533           
         O15       1.0000    0.32860   0.12960   0.33840   Biso      1.000     O          -0.642572           
         O16       1.0000    0.31870   0.71230   0.33590   Biso      1.000     O          -0.672553           
         O17       1.0000    0.19230   0.56320   0.43560   Biso      1.000     O          -0.564724           
         O18       1.0000    0.49540   0.08540   0.83780   Biso      1.000     O          -0.6126229999999999           
         O19       1.0000    0.50460   0.91460   0.16220   Biso      1.000     O          -0.6126229999999999           
         O20       1.0000    0.92410   0.35120   0.03320   Biso      1.000     O          -0.468149 