
##########################################################################
#               Crystallographic Information Format file
#               Produced by PyCifRW module
#
#  This is a CIF file.  CIF has been adopted by the International
#  Union of Crystallography as the standard for data archiving and
#  transmission.
#
#  For information on this file format, follow the CIF links at
#  http://www.iucr.org
##########################################################################

data_image0

_cell_length_a                          10.312
_cell_length_b                          13.919
_cell_length_c                          14.174
_cell_angle_alpha                       88.35
_cell_angle_beta                        69.287
_cell_angle_gamma                       74.727
_symmetry_space_group_name_H-M          'P 1'
_symmetry_int_tables_number             1
loop_
  _symmetry_equiv_pos_as_xyz
         'x, y, z' 
loop_
  _atom_site_label
  _atom_site_occupancy
  _atom_site_fract_x
  _atom_site_fract_y
  _atom_site_fract_z
  _atom_site_thermal_displace_type
  _atom_site_B_iso_or_equiv
  _atom_site_type_symbol
  _atom_site_charge
         C1        1.0000    0.04500   0.91240   0.53900   Biso      1.000     C          -0.14653  
         C2        1.0000    0.35260   0.97160   0.57710   Biso      1.000     C          -0.171018           
         C3        1.0000    0.14800   0.21420   0.13900   Biso      1.000     C          -0.191153           
         C4        1.0000    0.19740   0.22570   0.21510   Biso      1.000     C          -0.096618           
         C5        1.0000    0.37620   0.87110   0.55060   Biso      1.000     C          0.076481  
         C6        1.0000    0.10610   0.28070   0.30620   Biso      1.000     C          -0.095196           
         C7        1.0000    0.29110   0.87300   0.40210   Biso      1.000     C          -0.151033           
         C8        1.0000    0.96300   0.32540   0.32430   Biso      1.000     C          -0.154191           
         C9        1.0000    0.91220   0.31580   0.24690   Biso      1.000     C          0.143788  
         C10       1.0000    0.78800   0.32200   0.15210   Biso      1.000     C          0.122749  
         C11       1.0000    0.90580   0.97300   0.58380   Biso      1.000     C          -0.152471           
         C12       1.0000    0.86080   0.06120   0.54640   Biso      1.000     C          0.107214  
         C13       1.0000    0.11230   0.73460   0.26210   Biso      1.000     C          -0.203899           
         C14       1.0000    0.95500   0.08760   0.46100   Biso      1.000     C          -0.146526           
         C15       1.0000    0.13920   0.93880   0.45360   Biso      1.000     C          0.107209  
         C16       1.0000    0.70890   0.12700   0.59790   Biso      1.000     C          -0.151034           
         C17       1.0000    0.00490   0.26050   0.15690   Biso      1.000     C          0.085352  
         C18       1.0000    0.62380   0.12890   0.44940   Biso      1.000     C          0.07648   
         C19       1.0000    0.96920   0.21460   0.99700   Biso      1.000     C          -0.155728           
         C20       1.0000    0.92130   0.05930   0.08790   Biso      1.000     C          -0.152445           
         C21       1.0000    0.04780   0.58940   0.33350   Biso      1.000     C          -0.236183           
         C22       1.0000    0.98040   0.79160   0.32440   Biso      1.000     C          -0.091292           
         C23       1.0000    0.88290   0.74850   0.39140   Biso      1.000     C          -0.186306           
         C24       1.0000    0.91450   0.64600   0.39760   Biso      1.000     C          0.184193  
         C25       1.0000    0.29210   0.56550   0.19940   Biso      1.000     C          -0.407516           
         C26       1.0000    0.80740   0.59750   0.46950   Biso      1.000     C          -0.415245           
         C27       1.0000    0.72110   0.55450   0.42340   Biso      1.000     C          0.65348   
         C28       1.0000    0.39020   0.51910   0.25520   Biso      1.000     C          0.672291  
         C29       1.0000    0.38960   0.72580   0.48620   Biso      1.000     C          0.15086   
         C30       1.0000    0.42930   0.79500   0.60370   Biso      1.000     C          0.138203  
         C31       1.0000    0.46460   0.81730   0.68520   Biso      1.000     C          -0.168689           
         C32       1.0000    0.44310   0.91650   0.71030   Biso      1.000     C          -0.1177   
         C33       1.0000    0.93370   0.95830   0.08630   Biso      1.000     C          -0.156978           
         C34       1.0000    0.06630   0.04170   0.91370   Biso      1.000     C          -0.156983           
         C35       1.0000    0.98490   0.10240   0.00110   Biso      1.000     C          0.098702  
         C36       1.0000    0.38690   0.99180   0.65800   Biso      1.000     C          -0.106941           
         C37       1.0000    0.09420   0.02700   0.41620   Biso      1.000     C          -0.152459           
         C38       1.0000    0.14780   0.63100   0.26530   Biso      1.000     C          0.17929   
         C39       1.0000    0.01960   0.20840   0.67560   Biso      1.000     C          -0.091298           
         C40       1.0000    0.99510   0.73950   0.84310   Biso      1.000     C          0.08535   
         C41       1.0000    0.85200   0.78580   0.86100   Biso      1.000     C          -0.19115  
         C42       1.0000    0.08550   0.35400   0.60240   Biso      1.000     C          0.184192  
         C43       1.0000    0.11710   0.25150   0.60860   Biso      1.000     C          -0.186305           
         C44       1.0000    0.03080   0.78540   0.00300   Biso      1.000     C          -0.155728           
         C45       1.0000    0.64740   0.02840   0.42290   Biso      1.000     C          -0.171017           
         C46       1.0000    0.80260   0.77430   0.78490   Biso      1.000     C          -0.096619           
         C47       1.0000    0.88770   0.26540   0.73790   Biso      1.000     C          -0.203893           
         C48       1.0000    0.85220   0.36900   0.73470   Biso      1.000     C          0.179287  
         C49       1.0000    0.95220   0.41060   0.66650   Biso      1.000     C          -0.23618  
         C50       1.0000    0.27890   0.44550   0.57660   Biso      1.000     C          0.65348   
         C51       1.0000    0.70790   0.43450   0.80060   Biso      1.000     C          -0.407516           
         C52       1.0000    0.07870   0.94070   0.91210   Biso      1.000     C          -0.15244  
         C53       1.0000    0.89390   0.71930   0.69380   Biso      1.000     C          -0.095196           
         C54       1.0000    0.60980   0.48090   0.74480   Biso      1.000     C          0.672291  
         C55       1.0000    0.61310   0.00820   0.34200   Biso      1.000     C          -0.106942           
         C56       1.0000    0.21200   0.67800   0.84790   Biso      1.000     C          0.122748  
         C57       1.0000    0.55690   0.08350   0.28970   Biso      1.000     C          -0.117701           
         C58       1.0000    0.01510   0.89760   0.99890   Biso      1.000     C          0.098701  
         C59       1.0000    0.03700   0.67460   0.67570   Biso      1.000     C          -0.154191           
         C60       1.0000    0.57070   0.20500   0.39630   Biso      1.000     C          0.138202  
         C61       1.0000    0.53540   0.18270   0.31480   Biso      1.000     C          -0.168686           
         C62       1.0000    0.08780   0.68420   0.75310   Biso      1.000     C          0.143787  
         C63       1.0000    0.61040   0.27420   0.51380   Biso      1.000     C          0.15086   
         C64       1.0000    0.19260   0.40250   0.53050   Biso      1.000     C          -0.415245           
         Cd1       1.0000    0.56096   0.44682   0.36614   Biso      1.000     Cd          0.900805  
         Cd2       1.0000    0.43904   0.55318   0.63386   Biso      1.000     Cd          0.900805  
         H1        1.0000    0.07090   0.52040   0.33650   Biso      1.000     H          0.121113  
         H2        1.0000    0.33990   0.60500   0.14810   Biso      1.000     H          0.144169  
         H3        1.0000    0.27670   0.51260   0.16510   Biso      1.000     H          0.14515   
         H4        1.0000    0.13060   0.90130   0.85190   Biso      1.000     H          0.110351  
         H5        1.0000    0.10040   0.75630   0.03460   Biso      1.000     H          0.131041  
         H6        1.0000    0.93910   0.77470   0.04490   Biso      1.000     H          0.133168  
         H7        1.0000    0.15780   0.04720   0.35960   Biso      1.000     H          0.10506   
         H8        1.0000    0.79210   0.82290   0.92140   Biso      1.000     H          0.124577  
         H9        1.0000    0.50120   0.76720   0.72120   Biso      1.000     H          0.135045  
         H10       1.0000    0.70650   0.80370   0.79410   Biso      1.000     H          0.104262  
         H11       1.0000    0.46690   0.93360   0.76380   Biso      1.000     H          0.103075  
         H12       1.0000    0.37210   0.05790   0.67850   Biso      1.000     H          0.107957  
         H13       1.0000    0.85680   0.71290   0.64400   Biso      1.000     H          0.107903  
         H14       1.0000    0.31560   0.02220   0.54170   Biso      1.000     H          0.122523  
         H15       1.0000    0.09760   0.63940   0.61440   Biso      1.000     H          0.130842  
         H16       1.0000    0.35110   0.91330   0.36140   Biso      1.000     H          0.117407  
         H17       1.0000    0.28970   0.82230   0.35730   Biso      1.000     H          0.136544  
         H18       1.0000    0.28780   0.66340   0.87180   Biso      1.000     H          0.11176   
         H19       1.0000    0.07460   0.85330   0.56720   Biso      1.000     H          0.107846  
         H20       1.0000    0.38300   0.67820   0.44470   Biso      1.000     H          0.120737  
         H21       1.0000    0.11330   0.06930   0.85520   Biso      1.000     H          0.114314  
         H22       1.0000    0.88670   0.93070   0.14480   Biso      1.000     H          0.114313  
         H23       1.0000    0.95660   0.86050   0.32110   Biso      1.000     H          0.095356  
         H24       1.0000    0.92540   0.14670   0.43280   Biso      1.000     H          0.107846  
         H25       1.0000    0.17800   0.76500   0.21790   Biso      1.000     H          0.105702  
         H26       1.0000    0.64890   0.08670   0.63860   Biso      1.000     H          0.117408  
         H27       1.0000    0.68440   0.97780   0.45830   Biso      1.000     H          0.122523  
         H28       1.0000    0.62790   0.94210   0.32150   Biso      1.000     H          0.107957  
         H29       1.0000    0.53310   0.06640   0.23620   Biso      1.000     H          0.103075  
         H30       1.0000    0.49880   0.23280   0.27880   Biso      1.000     H          0.135045  
         H31       1.0000    0.84220   0.95280   0.64040   Biso      1.000     H          0.10506   
         H32       1.0000    0.61700   0.32180   0.55530   Biso      1.000     H          0.120737  
         H33       1.0000    0.66010   0.39500   0.85190   Biso      1.000     H          0.144169  
         H34       1.0000    0.92910   0.47960   0.66350   Biso      1.000     H          0.121113  
         H35       1.0000    0.82200   0.23500   0.78210   Biso      1.000     H          0.105702  
         H36       1.0000    0.04340   0.13950   0.67890   Biso      1.000     H          0.095357  
         H37       1.0000    0.20560   0.21130   0.56670   Biso      1.000     H          0.107388  
         H38       1.0000    0.25910   0.35340   0.47610   Biso      1.000     H          0.146379  
         H39       1.0000    0.14110   0.45570   0.50070   Biso      1.000     H          0.147095  
         H40       1.0000    0.72330   0.48740   0.83490   Biso      1.000     H          0.14515   
         H41       1.0000    0.71220   0.33660   0.12820   Biso      1.000     H          0.11176   
         H42       1.0000    0.71030   0.17770   0.64270   Biso      1.000     H          0.136544  
         H43       1.0000    0.14320   0.28710   0.35600   Biso      1.000     H          0.107903  
         H44       1.0000    0.29350   0.19630   0.20590   Biso      1.000     H          0.104262  
         H45       1.0000    0.20790   0.17710   0.07860   Biso      1.000     H          0.124577  
         H46       1.0000    0.06090   0.22530   0.95510   Biso      1.000     H          0.133168  
         H47       1.0000    0.89960   0.24370   0.96540   Biso      1.000     H          0.131041  
         H48       1.0000    0.86940   0.09870   0.14810   Biso      1.000     H          0.110351  
         H49       1.0000    0.79440   0.78870   0.43330   Biso      1.000     H          0.107389  
         H50       1.0000    0.74090   0.64660   0.52390   Biso      1.000     H          0.146379  
         H51       1.0000    0.85890   0.54430   0.49930   Biso      1.000     H          0.147095  
         H52       1.0000    0.90240   0.36060   0.38560   Biso      1.000     H          0.130842  
         N1        1.0000    0.77520   0.35380   0.24200   Biso      1.000     N          -0.336534           
         N2        1.0000    0.22480   0.64620   0.75800   Biso      1.000     N          -0.336534           
         N3        1.0000    0.07750   0.73430   0.90290   Biso      1.000     N          -0.012209           
         N4        1.0000    0.92250   0.26570   0.09710   Biso      1.000     N          -0.012209           
         N5        1.0000    0.35330   0.82480   0.47500   Biso      1.000     N          -0.00253  
         N6        1.0000    0.43520   0.70350   0.56180   Biso      1.000     N          -0.350019           
         N7        1.0000    0.56480   0.29650   0.43820   Biso      1.000     N          -0.350019           
         N8        1.0000    0.64670   0.17520   0.52500   Biso      1.000     N          -0.00253  
         O1        1.0000    0.34750   0.50420   0.52270   Biso      1.000     O          -0.617477           
         O2        1.0000    0.71780   0.57570   0.33940   Biso      1.000     O          -0.564064           
         O3        1.0000    0.58220   0.42640   0.69130   Biso      1.000     O          -0.58457  
         O4        1.0000    0.41780   0.57360   0.30870   Biso      1.000     O          -0.58457  
         O5        1.0000    0.65250   0.49580   0.47730   Biso      1.000     O          -0.617477           
         O6        1.0000    0.44590   0.42670   0.24560   Biso      1.000     O          -0.625641           
         O7        1.0000    0.28220   0.42430   0.66060   Biso      1.000     O          -0.564064           
         O8        1.0000    0.55410   0.57330   0.75440   Biso      1.000     O          -0.625641 