
##########################################################################
#               Crystallographic Information Format file
#               Produced by PyCifRW module
#
#  This is a CIF file.  CIF has been adopted by the International
#  Union of Crystallography as the standard for data archiving and
#  transmission.
#
#  For information on this file format, follow the CIF links at
#  http://www.iucr.org
##########################################################################

data_image0

_cell_length_a                          16.049
_cell_length_b                          9.622
_cell_length_c                          7.465
_cell_angle_alpha                       90
_cell_angle_beta                        90
_cell_angle_gamma                       90
_symmetry_space_group_name_H-M          'P 1'
_symmetry_int_tables_number             1
loop_
  _symmetry_equiv_pos_as_xyz
         'x, y, z' 
loop_
  _atom_site_label
  _atom_site_occupancy
  _atom_site_fract_x
  _atom_site_fract_y
  _atom_site_fract_z
  _atom_site_thermal_displace_type
  _atom_site_B_iso_or_equiv
  _atom_site_type_symbol
  _atom_site_charge
         C1        1.0000    0.80560   0.16880   0.87410   Biso      1.000     C          0.16488   
         C2        1.0000    0.56050   0.66060   0.89640   Biso      1.000     C          -0.011007           
         C3        1.0000    0.49000   0.72900   0.80390   Biso      1.000     C          0.560767  
         C4        1.0000    0.69010   0.05260   0.87960   Biso      1.000     C          0.30782   
         C5        1.0000    0.82270   0.04030   0.92600   Biso      1.000     C          0.112331  
         C6        1.0000    0.67730   0.95970   0.42600   Biso      1.000     C          0.109873  
         C7        1.0000    0.21260   0.90660   0.09810   Biso      1.000     C          0.6033310000000001  
         C8        1.0000    0.13810   0.86250   0.21110   Biso      1.000     C          0.037714  
         C9        1.0000    0.06050   0.83940   0.10360   Biso      1.000     C          -0.007788           
         C10       1.0000    0.99000   0.77100   0.19610   Biso      1.000     C          0.566617  
         C11       1.0000    0.19010   0.44740   0.12040   Biso      1.000     C          0.31502600000000003           
         C12       1.0000    0.32270   0.45970   0.07400   Biso      1.000     C          0.1099    
         C13       1.0000    0.30560   0.33120   0.12590   Biso      1.000     C          0.162223  
         C14       1.0000    0.78740   0.40660   0.40190   Biso      1.000     C          0.603351  
         C15       1.0000    0.86190   0.36250   0.28890   Biso      1.000     C          0.037659  
         C16       1.0000    0.93950   0.33940   0.39640   Biso      1.000     C          -0.007776999999999999         
         C17       1.0000    0.01000   0.27100   0.30390   Biso      1.000     C          0.566685  
         C18       1.0000    0.80990   0.94740   0.37960   Biso      1.000     C          0.31501399999999996           
         C19       1.0000    0.63810   0.63750   0.78890   Biso      1.000     C          0.039901  
         C20       1.0000    0.71260   0.59340   0.90190   Biso      1.000     C          0.59796   
         C21       1.0000    0.69440   0.83120   0.37410   Biso      1.000     C          0.162204  
         C22       1.0000    0.17730   0.54030   0.57400   Biso      1.000     C          0.11231400000000001           
         C23       1.0000    0.51000   0.22900   0.69610   Biso      1.000     C          0.5607800000000001  
         C24       1.0000    0.43950   0.16060   0.60360   Biso      1.000     C          -0.011034           
         C25       1.0000    0.36190   0.13750   0.71110   Biso      1.000     C          0.039871  
         C26       1.0000    0.28740   0.09340   0.59810   Biso      1.000     C          0.597975  
         C27       1.0000    0.30990   0.55260   0.62040   Biso      1.000     C          0.307819  
         C28       1.0000    0.19440   0.66880   0.62590   Biso      1.000     C          0.164877  
         Cu1       1.0000    0.16560   0.15830   0.25980   Biso      1.000     Cu          0.8972120000000001  
         Cu2       1.0000    0.33440   0.84170   0.75980   Biso      1.000     Cu          0.886441  
         Cu3       1.0000    0.66560   0.34170   0.74020   Biso      1.000     Cu          0.886438  
         Cu4       1.0000    0.83440   0.65830   0.24020   Biso      1.000     Cu          0.8972209999999999  
         N1        1.0000    0.87310   0.47600   0.14790   Biso      1.000     N          -0.24480100000000002          
         N2        1.0000    0.37310   0.02400   0.85210   Biso      1.000     N          -0.24508200000000002          
         N3        1.0000    0.25160   0.53570   0.06830   Biso      1.000     N          -0.240405           
         N4        1.0000    0.77840   0.82380   0.34240   Biso      1.000     N          -0.37954299999999996          
         N5        1.0000    0.74840   0.03570   0.43170   Biso      1.000     N          -0.240351           
         N6        1.0000    0.27840   0.67620   0.65760   Biso      1.000     N          -0.375039           
         N7        1.0000    0.22160   0.32380   0.15760   Biso      1.000     N          -0.3795   
         N8        1.0000    0.24840   0.46430   0.56830   Biso      1.000     N          -0.23344  
         N9        1.0000    0.62690   0.52400   0.64790   Biso      1.000     N          -0.245083           
         N10       1.0000    0.75160   0.96430   0.93170   Biso      1.000     N          -0.23348000000000002          
         N11       1.0000    0.72160   0.17620   0.84240   Biso      1.000     N          -0.375017           
         N12       1.0000    0.12690   0.97600   0.35210   Biso      1.000     N          -0.244784           
         O1        1.0000    0.25900   0.18430   0.50320   Biso      1.000     O          -0.435938           
         O2        1.0000    0.72980   0.46770   0.90120   Biso      1.000     O          -0.458743           
         O3        1.0000    0.27020   0.96770   0.59880   Biso      1.000     O          -0.45879  
         O4        1.0000    0.58130   0.22810   0.62460   Biso      1.000     O          -0.46629  
         O5        1.0000    0.74100   0.68430   0.99680   Biso      1.000     O          -0.43588999999999994          
         O6        1.0000    0.49810   0.29350   0.83670   Biso      1.000     O          -0.43278199999999994          
         O7        1.0000    0.99810   0.20650   0.16330   Biso      1.000     O          -0.46363000000000004          
         O8        1.0000    0.77020   0.53230   0.40120   Biso      1.000     O          -0.455842           
         O9        1.0000    0.75900   0.31570   0.49680   Biso      1.000     O          -0.44327700000000003          
         O10       1.0000    0.24100   0.81570   0.00320   Biso      1.000     O          -0.443234           
         O11       1.0000    0.22980   0.03230   0.09880   Biso      1.000     O          -0.4558   
         O12       1.0000    0.91870   0.77190   0.12460   Biso      1.000     O          -0.46870500000000004          
         O13       1.0000    0.00190   0.70650   0.33670   Biso      1.000     O          -0.46340299999999995          
         O14       1.0000    0.50190   0.79350   0.66330   Biso      1.000     O          -0.432691           
         O15       1.0000    0.08130   0.27190   0.37540   Biso      1.000     O          -0.468789           
         O16       1.0000    0.41870   0.72810   0.87540   Biso      1.000     O          -0.466271 