
##########################################################################
#               Crystallographic Information Format file
#               Produced by PyCifRW module
#
#  This is a CIF file.  CIF has been adopted by the International
#  Union of Crystallography as the standard for data archiving and
#  transmission.
#
#  For information on this file format, follow the CIF links at
#  http://www.iucr.org
##########################################################################

data_image0

_cell_length_a                          7.465
_cell_length_b                          9.622
_cell_length_c                          16.049
_cell_angle_alpha                       90
_cell_angle_beta                        90
_cell_angle_gamma                       90
_symmetry_space_group_name_H-M          'P 1'
_symmetry_int_tables_number             1
loop_
  _symmetry_equiv_pos_as_xyz
         'x, y, z' 
loop_
  _atom_site_label
  _atom_site_occupancy
  _atom_site_fract_x
  _atom_site_fract_y
  _atom_site_fract_z
  _atom_site_thermal_displace_type
  _atom_site_B_iso_or_equiv
  _atom_site_type_symbol
  _atom_site_charge
         C1        1.0000    0.28890   0.86250   0.63810   Biso      1.000     C          0.040983  
         C2        1.0000    0.59810   0.59340   0.21260   Biso      1.000     C          0.624088  
         C3        1.0000    0.87410   0.66880   0.69440   Biso      1.000     C          -0.059817999999999996         
         C4        1.0000    0.92600   0.54030   0.67730   Biso      1.000     C          -0.038216           
         C5        1.0000    0.87960   0.55260   0.80990   Biso      1.000     C          0.14396099999999998           
         C6        1.0000    0.80390   0.22900   0.01000   Biso      1.000     C          0.646994  
         C7        1.0000    0.89640   0.16060   0.93950   Biso      1.000     C          -0.372299           
         C8        1.0000    0.78890   0.13750   0.86190   Biso      1.000     C          0.040983  
         C9        1.0000    0.90190   0.09340   0.78740   Biso      1.000     C          0.624088  
         C10       1.0000    0.69610   0.72900   0.99000   Biso      1.000     C          0.646994  
         C11       1.0000    0.62040   0.05260   0.19010   Biso      1.000     C          0.14396099999999998           
         C12       1.0000    0.57400   0.04030   0.32270   Biso      1.000     C          -0.038251           
         C13       1.0000    0.62590   0.16880   0.30560   Biso      1.000     C          -0.059782           
         C14       1.0000    0.40190   0.90660   0.71260   Biso      1.000     C          0.624088  
         C15       1.0000    0.12590   0.83120   0.19440   Biso      1.000     C          -0.059817999999999996         
         C16       1.0000    0.07400   0.95970   0.17730   Biso      1.000     C          -0.038216           
         C17       1.0000    0.12040   0.94740   0.30990   Biso      1.000     C          0.14396099999999998           
         C18       1.0000    0.19610   0.27100   0.51000   Biso      1.000     C          0.646994  
         C19       1.0000    0.10360   0.33940   0.43950   Biso      1.000     C          -0.372298           
         C20       1.0000    0.21110   0.36250   0.36190   Biso      1.000     C          0.040983  
         C21       1.0000    0.09810   0.40660   0.28740   Biso      1.000     C          0.624088  
         C22       1.0000    0.37410   0.33120   0.80560   Biso      1.000     C          -0.059817999999999996         
         C23       1.0000    0.42600   0.45970   0.82270   Biso      1.000     C          -0.038216           
         C24       1.0000    0.37960   0.44740   0.69010   Biso      1.000     C          0.14396199999999998           
         C25       1.0000    0.30390   0.77100   0.49000   Biso      1.000     C          0.646994  
         C26       1.0000    0.39640   0.83940   0.56050   Biso      1.000     C          -0.372299           
         C27       1.0000    0.71110   0.63750   0.13810   Biso      1.000     C          0.040983  
         C28       1.0000    0.60360   0.66060   0.06050   Biso      1.000     C          -0.372298           
         Cu1       1.0000    0.24020   0.15830   0.66560   Biso      1.000     Cu          0.807014  
         Cu2       1.0000    0.25980   0.65830   0.33440   Biso      1.000     Cu          0.807013  
         Cu3       1.0000    0.74020   0.84170   0.83440   Biso      1.000     Cu          0.807012  
         Cu4       1.0000    0.75980   0.34170   0.16560   Biso      1.000     Cu          0.807012  
         H1        1.0000    0.03890   0.95120   0.65990   Biso      1.000     H          0.29967   
         H2        1.0000    0.43890   0.93220   0.54070   Biso      1.000     H          0.146562  
         H3        1.0000    0.50170   0.78050   0.57570   Biso      1.000     H          0.152553  
         H4        1.0000    0.37070   0.47230   0.62980   Biso      1.000     H          0.10034900000000001           
         H5        1.0000    0.46680   0.63550   0.74570   Biso      1.000     H          0.291385  
         H6        1.0000    0.45640   0.49530   0.87950   Biso      1.000     H          0.121624  
         H7        1.0000    0.36050   0.25360   0.84660   Biso      1.000     H          0.121296  
         H8        1.0000    0.11570   0.98290   0.56660   Biso      1.000     H          0.300183  
         H9        1.0000    0.54360   0.00470   0.37950   Biso      1.000     H          0.121626  
         H10       1.0000    0.46110   0.45120   0.34010   Biso      1.000     H          0.29967   
         H11       1.0000    0.06110   0.43220   0.45930   Biso      1.000     H          0.146562  
         H12       1.0000    0.99830   0.28050   0.42430   Biso      1.000     H          0.152552  
         H13       1.0000    0.12930   0.97230   0.37020   Biso      1.000     H          0.10034900000000001           
         H14       1.0000    0.03320   0.13550   0.25430   Biso      1.000     H          0.291385  
         H15       1.0000    0.04360   0.99530   0.12050   Biso      1.000     H          0.121624  
         H16       1.0000    0.13950   0.75360   0.15340   Biso      1.000     H          0.121296  
         H17       1.0000    0.38430   0.48290   0.43340   Biso      1.000     H          0.300183  
         H18       1.0000    0.27370   0.27380   0.34750   Biso      1.000     H          0.077265  
         H19       1.0000    0.22630   0.77380   0.65250   Biso      1.000     H          0.077265  
         H20       1.0000    0.72630   0.22620   0.84750   Biso      1.000     H          0.077265  
         H21       1.0000    0.53320   0.86450   0.24570   Biso      1.000     H          0.291385  
         H22       1.0000    0.62930   0.02770   0.12980   Biso      1.000     H          0.10034900000000001           
         H23       1.0000    0.49830   0.71950   0.07570   Biso      1.000     H          0.152553  
         H24       1.0000    0.56110   0.56780   0.04070   Biso      1.000     H          0.146562  
         H25       1.0000    0.96110   0.54880   0.15990   Biso      1.000     H          0.29967   
         H26       1.0000    0.88430   0.51710   0.06660   Biso      1.000     H          0.300183  
         H27       1.0000    0.63950   0.24640   0.34660   Biso      1.000     H          0.12129300000000001           
         H28       1.0000    0.77370   0.72620   0.15250   Biso      1.000     H          0.077265  
         H29       1.0000    0.95640   0.50470   0.62050   Biso      1.000     H          0.121624  
         H30       1.0000    0.96680   0.36450   0.75430   Biso      1.000     H          0.291385  
         H31       1.0000    0.87070   0.52770   0.87020   Biso      1.000     H          0.10034900000000001           
         H32       1.0000    0.00170   0.21950   0.92430   Biso      1.000     H          0.152552  
         H33       1.0000    0.93890   0.06780   0.95930   Biso      1.000     H          0.146562  
         H34       1.0000    0.53890   0.04880   0.84010   Biso      1.000     H          0.29967   
         H35       1.0000    0.61570   0.01710   0.93340   Biso      1.000     H          0.300183  
         H36       1.0000    0.86050   0.74640   0.65340   Biso      1.000     H          0.121296  
         N1        1.0000    0.14790   0.97600   0.62690   Biso      1.000     N          -0.598658           
         N2        1.0000    0.34240   0.32380   0.72160   Biso      1.000     N          -0.302435           
         N3        1.0000    0.35210   0.47600   0.37310   Biso      1.000     N          -0.598657           
         N4        1.0000    0.06830   0.03570   0.24840   Biso      1.000     N          -0.19308699999999998          
         N5        1.0000    0.43170   0.53570   0.75160   Biso      1.000     N          -0.193088           
         N6        1.0000    0.56830   0.96430   0.25160   Biso      1.000     N          -0.193084           
         N7        1.0000    0.65760   0.17620   0.22160   Biso      1.000     N          -0.302438           
         N8        1.0000    0.85210   0.52400   0.12690   Biso      1.000     N          -0.598657           
         N9        1.0000    0.93170   0.46430   0.74840   Biso      1.000     N          -0.19308699999999998          
         N10       1.0000    0.84240   0.67620   0.77840   Biso      1.000     N          -0.302433           
         N11       1.0000    0.64790   0.02400   0.87310   Biso      1.000     N          -0.5986560000000001           
         N12       1.0000    0.15760   0.82380   0.27840   Biso      1.000     N          -0.30243400000000004          
         O1        1.0000    0.49680   0.81570   0.74100   Biso      1.000     O          -0.563114           
         O2        1.0000    0.40120   0.03230   0.72970   Biso      1.000     O          -0.542813           
         O3        1.0000    0.37540   0.77190   0.41870   Biso      1.000     O          -0.580662           
         O4        1.0000    0.00320   0.31570   0.25900   Biso      1.000     O          -0.5631149999999999           
         O5        1.0000    0.09880   0.53230   0.27030   Biso      1.000     O          -0.542812           
         O6        1.0000    0.16330   0.70650   0.50190   Biso      1.000     O          -0.6228239999999999           
         O7        1.0000    0.83670   0.79350   0.00190   Biso      1.000     O          -0.6228239999999999           
         O8        1.0000    0.62460   0.72810   0.91870   Biso      1.000     O          -0.580662           
         O9        1.0000    0.59880   0.46770   0.22970   Biso      1.000     O          -0.542813           
         O10       1.0000    0.50320   0.68430   0.24100   Biso      1.000     O          -0.5631149999999999           
         O11       1.0000    0.66330   0.29350   0.99810   Biso      1.000     O          -0.6228239999999999           
         O12       1.0000    0.87540   0.22810   0.08130   Biso      1.000     O          -0.580662           
         O13       1.0000    0.90120   0.96770   0.77030   Biso      1.000     O          -0.542812           
         O14       1.0000    0.99680   0.18430   0.75900   Biso      1.000     O          -0.5631149999999999           
         O15       1.0000    0.12460   0.27190   0.58130   Biso      1.000     O          -0.580663           
         O16       1.0000    0.33670   0.20650   0.49810   Biso      1.000     O          -0.6228239999999999 