
##########################################################################
#               Crystallographic Information Format file
#               Produced by PyCifRW module
#
#  This is a CIF file.  CIF has been adopted by the International
#  Union of Crystallography as the standard for data archiving and
#  transmission.
#
#  For information on this file format, follow the CIF links at
#  http://www.iucr.org
##########################################################################

data_image0

_cell_length_a                          4.941
_cell_length_b                          10.96
_cell_length_c                          12.756
_cell_angle_alpha                       91.5127
_cell_angle_beta                        101.167
_cell_angle_gamma                       82.166
_symmetry_space_group_name_H-M          'P 1'
_symmetry_int_tables_number             1
loop_
  _symmetry_equiv_pos_as_xyz
         'x, y, z' 
loop_
  _atom_site_label
  _atom_site_occupancy
  _atom_site_fract_x
  _atom_site_fract_y
  _atom_site_fract_z
  _atom_site_thermal_displace_type
  _atom_site_B_iso_or_equiv
  _atom_site_type_symbol
  _atom_site_charge
         C1        1.0000    0.03100   0.16800   0.05280   Biso      1.000     C          -0.150527           
         C2        1.0000    0.43220   0.67590   0.53440   Biso      1.000     C          0.031643  
         C3        1.0000    0.59890   0.71630   0.47060   Biso      1.000     C          -0.14979800000000001          
         C4        1.0000    0.63630   0.65190   0.37800   Biso      1.000     C          0.0745    
         C5        1.0000    0.37580   0.74650   0.63340   Biso      1.000     C          0.545115  
         C6        1.0000    0.93920   0.07440   0.86740   Biso      1.000     C          0.571524  
         C7        1.0000    0.94970   0.24880   0.12900   Biso      1.000     C          0.098992  
         C8        1.0000    0.85890   0.16130   0.95360   Biso      1.000     C          0.022548  
         C9        1.0000    0.60900   0.23940   0.93540   Biso      1.000     C          -0.14891300000000002          
         C10       1.0000    0.54200   0.32120   0.01360   Biso      1.000     C          0.07284199999999999           
         C11       1.0000    0.74240   0.24650   0.36660   Biso      1.000     C          0.544755  
         C12       1.0000    0.25830   0.15190   0.62200   Biso      1.000     C          0.076536  
         C13       1.0000    0.12830   0.21630   0.52940   Biso      1.000     C          -0.149949           
         C14       1.0000    0.89780   0.17590   0.46560   Biso      1.000     C          0.031131  
         C15       1.0000    0.80100   0.07140   0.49620   Biso      1.000     C          -0.154422           
         C16       1.0000    0.94220   0.01100   0.58880   Biso      1.000     C          0.097192  
         C17       1.0000    0.07180   0.57440   0.13260   Biso      1.000     C          0.570627  
         C18       1.0000    0.82070   0.74880   0.87100   Biso      1.000     C          0.1009    
         C19       1.0000    0.97820   0.66800   0.94720   Biso      1.000     C          -0.150088           
         C20       1.0000    0.90530   0.66130   0.04640   Biso      1.000     C          0.022034  
         C21       1.0000    0.67360   0.73940   0.06460   Biso      1.000     C          -0.14641700000000002          
         C22       1.0000    0.52840   0.82120   0.98640   Biso      1.000     C          0.070478  
         C23       1.0000    0.30480   0.57140   0.50380   Biso      1.000     C          -0.15726800000000002          
         C24       1.0000    0.35340   0.51100   0.41120   Biso      1.000     C          0.094284  
         Cu1       1.0000    0.61059   0.44296   0.22642   Biso      1.000     Cu          0.7953140000000001  
         Cu2       1.0000    0.38417   0.94296   0.77358   Biso      1.000     Cu          0.796459  
         H1        1.0000    0.61580   0.73680   0.12960   Biso      1.000     H          0.130352  
         H2        1.0000    0.74760   0.67990   0.33520   Biso      1.000     H          0.101048  
         H3        1.0000    0.37840   0.87540   0.00120   Biso      1.000     H          0.10030800000000001           
         H4        1.0000    0.18970   0.54280   0.54460   Biso      1.000     H          0.13489500000000001           
         H5        1.0000    0.27050   0.44050   0.39140   Biso      1.000     H          0.09898   
         H6        1.0000    0.06670   0.25040   0.19540   Biso      1.000     H          0.105762  
         H7        1.0000    0.20150   0.11790   0.06780   Biso      1.000     H          0.134305  
         H8        1.0000    0.48620   0.23680   0.87040   Biso      1.000     H          0.131745  
         H9        1.0000    0.68540   0.78600   0.48960   Biso      1.000     H          0.134073  
         H10       1.0000    0.41240   0.17990   0.66480   Biso      1.000     H          0.100049  
         H11       1.0000    0.19580   0.28600   0.51040   Biso      1.000     H          0.133932  
         H12       1.0000    0.64510   0.04280   0.45540   Biso      1.000     H          0.13287000000000002           
         H13       1.0000    0.87910   0.94050   0.60860   Biso      1.000     H          0.097718  
         H14       1.0000    0.87130   0.75040   0.80460   Biso      1.000     H          0.106579  
         H15       1.0000    0.13370   0.61790   0.93220   Biso      1.000     H          0.132778  
         H16       1.0000    0.37720   0.37540   0.99880   Biso      1.000     H          0.099203  
         N1        1.0000    0.59740   0.82530   0.88840   Biso      1.000     N          -0.218487           
         N2        1.0000    0.16730   0.04970   0.65180   Biso      1.000     N          -0.202432           
         N3        1.0000    0.51550   0.54970   0.34820   Biso      1.000     N          -0.199913           
         N4        1.0000    0.70900   0.32530   0.11160   Biso      1.000     N          -0.21702600000000002          
         O1        1.0000    0.31980   0.53690   0.12040   Biso      1.000     O          -0.545891           
         O2        1.0000    0.50790   0.83750   0.65860   Biso      1.000     O          -0.531142           
         O3        1.0000    0.20127   0.71450   0.68294   Biso      1.000     O          -0.570001           
         O4        1.0000    0.19940   0.03690   0.87960   Biso      1.000     O          -0.547805           
         O5        1.0000    0.75173   0.04830   0.79326   Biso      1.000     O          -0.575291           
         O6        1.0000    0.84930   0.33750   0.34140   Biso      1.000     O          -0.53085  
         O7        1.0000    0.51833   0.21450   0.31706   Biso      1.000     O          -0.5695439999999999           
         O8        1.0000    0.95847   0.54830   0.20674   Biso      1.000     O          -0.575709 