
##########################################################################
#               Crystallographic Information Format file
#               Produced by PyCifRW module
#
#  This is a CIF file.  CIF has been adopted by the International
#  Union of Crystallography as the standard for data archiving and
#  transmission.
#
#  For information on this file format, follow the CIF links at
#  http://www.iucr.org
##########################################################################

data_image0

_cell_length_a                          4.9579
_cell_length_b                          10.9881
_cell_length_c                          12.7819
_cell_angle_alpha                       91.5597
_cell_angle_beta                        101.183
_cell_angle_gamma                       81.9322
_symmetry_space_group_name_H-M          'P 1'
_symmetry_int_tables_number             1
loop_
  _symmetry_equiv_pos_as_xyz
         'x, y, z' 
loop_
  _atom_site_label
  _atom_site_occupancy
  _atom_site_fract_x
  _atom_site_fract_y
  _atom_site_fract_z
  _atom_site_thermal_displace_type
  _atom_site_B_iso_or_equiv
  _atom_site_type_symbol
  _atom_site_charge
         C1        1.0000    0.35247   0.00190   0.04594   Biso      1.000     C          0.019715  
         C2        1.0000    0.25267   0.41310   0.49674   Biso      1.000     C          -0.155158           
         C3        1.0000    0.34556   0.51780   0.46552   Biso      1.000     C          0.029692000000000003          
         C4        1.0000    0.57681   0.55790   0.52962   Biso      1.000     C          -0.149755           
         C5        1.0000    0.70536   0.49290   0.62032   Biso      1.000     C          0.078057  
         C6        1.0000    0.26879   0.09020   0.87118   Biso      1.000     C          0.09955599999999999           
         C7        1.0000    0.42737   0.00850   0.94694   Biso      1.000     C          -0.150063           
         C8        1.0000    0.12052   0.08040   0.06444   Biso      1.000     C          -0.1466   
         C9        1.0000    0.97740   0.16150   0.98560   Biso      1.000     C          0.076963  
         C10       1.0000    0.51829   0.91560   0.13218   Biso      1.000     C          0.574804  
         C11       1.0000    0.08504   0.99290   0.37968   Biso      1.000     C          0.080198  
         C12       1.0000    0.04719   0.05790   0.47038   Biso      1.000     C          -0.15199100000000001          
         C13       1.0000    0.88004   0.01780   0.53448   Biso      1.000     C          0.031475  
         C14       1.0000    0.75593   0.91310   0.50326   Biso      1.000     C          -0.158255           
         C15       1.0000    0.80301   0.85280   0.41062   Biso      1.000     C          0.094723  
         C16       1.0000    0.82525   0.08790   0.63430   Biso      1.000     C          0.550365  
         C17       1.0000    0.39761   0.59020   0.12882   Biso      1.000     C          0.100602  
         C18       1.0000    0.48043   0.50850   0.05306   Biso      1.000     C          -0.14940599999999998          
         C19       1.0000    0.30653   0.50190   0.95406   Biso      1.000     C          0.018494999999999998          
         C20       1.0000    0.05608   0.58040   0.93556   Biso      1.000     C          -0.149371           
         C21       1.0000    0.99180   0.66150   0.01440   Biso      1.000     C          0.076935  
         C22       1.0000    0.38611   0.41560   0.86782   Biso      1.000     C          0.576001  
         C23       1.0000    0.39239   0.35280   0.58938   Biso      1.000     C          0.096441  
         C24       1.0000    0.19095   0.58790   0.36570   Biso      1.000     C          0.54809   
         Cu1       1.0000    0.05648   0.78373   0.22654   Biso      1.000     Cu          0.794362  
         Cu2       1.0000    0.82994   0.28373   0.77346   Biso      1.000     Cu          0.794258  
         H1        1.0000    0.93190   0.57810   0.87000   Biso      1.000     H          0.133158  
         H2        1.0000    0.86140   0.52070   0.66300   Biso      1.000     H          0.097081  
         H3        1.0000    0.82520   0.71610   0.00000   Biso      1.000     H          0.096622  
         H4        1.0000    0.09680   0.38370   0.45540   Biso      1.000     H          0.131346  
         H5        1.0000    0.32790   0.28250   0.61040   Biso      1.000     H          0.099432  
         H6        1.0000    0.31950   0.09260   0.80420   Biso      1.000     H          0.10610499999999999           
         H7        1.0000    0.58430   0.95790   0.93160   Biso      1.000     H          0.13509100000000002           
         H8        1.0000    0.06190   0.07810   0.13000   Biso      1.000     H          0.130796  
         H9        1.0000    0.64440   0.62850   0.51120   Biso      1.000     H          0.13378800000000002           
         H10       1.0000    0.19840   0.02070   0.33700   Biso      1.000     H          0.096662  
         H11       1.0000    0.13320   0.12850   0.48880   Biso      1.000     H          0.133883  
         H12       1.0000    0.64140   0.88370   0.54460   Biso      1.000     H          0.133473  
         H13       1.0000    0.71750   0.78250   0.38960   Biso      1.000     H          0.099435  
         H14       1.0000    0.51530   0.59260   0.19580   Biso      1.000     H          0.103745  
         H15       1.0000    0.65270   0.45790   0.06840   Biso      1.000     H          0.134524  
         H16       1.0000    0.82520   0.21610   0.00000   Biso      1.000     H          0.096207  
         N1        1.0000    0.15675   0.66610   0.11090   Biso      1.000     N          -0.216059           
         N2        1.0000    0.96751   0.89150   0.34942   Biso      1.000     N          -0.199552           
         N3        1.0000    0.61809   0.39150   0.65058   Biso      1.000     N          -0.20103800000000002          
         N4        1.0000    0.04585   0.16610   0.88910   Biso      1.000     N          -0.217775           
         O1        1.0000    0.64551   0.37844   0.87862   Biso      1.000     O          -0.5514979999999999           
         O2        1.0000    0.29852   0.67850   0.34124   Biso      1.000     O          -0.532239           
         O3        1.0000    0.97020   0.55510   0.31720   Biso      1.000     O          -0.566299           
         O4        1.0000    0.76689   0.87844   0.12138   Biso      1.000     O          -0.551856           
         O5        1.0000    0.40853   0.88772   0.20606   Biso      1.000     O          -0.57716  
         O6        1.0000    0.95728   0.17850   0.65876   Biso      1.000     O          -0.533234           
         O7        1.0000    0.65300   0.05510   0.68280   Biso      1.000     O          -0.5679960000000001           
         O8        1.0000    0.20247   0.38772   0.79394   Biso      1.000     O          -0.576774 