
##########################################################################
#               Crystallographic Information Format file
#               Produced by PyCifRW module
#
#  This is a CIF file.  CIF has been adopted by the International
#  Union of Crystallography as the standard for data archiving and
#  transmission.
#
#  For information on this file format, follow the CIF links at
#  http://www.iucr.org
##########################################################################

data_image0

_cell_length_a                          11.85
_cell_length_b                          13.853
_cell_length_c                          13.944
_cell_angle_alpha                       90
_cell_angle_beta                        114.793
_cell_angle_gamma                       90
_symmetry_space_group_name_H-M          'P 1'
_symmetry_int_tables_number             1
loop_
  _symmetry_equiv_pos_as_xyz
         'x, y, z' 
loop_
  _atom_site_label
  _atom_site_occupancy
  _atom_site_fract_x
  _atom_site_fract_y
  _atom_site_fract_z
  _atom_site_thermal_displace_type
  _atom_site_B_iso_or_equiv
  _atom_site_type_symbol
  _atom_site_charge
         C1        1.0000    0.84490   0.70990   0.77960   Biso      1.000     C          0.002421  
         C2        1.0000    0.90530   0.63060   0.85740   Biso      1.000     C          0.590914  
         C3        1.0000    0.85900   0.83780   0.66800   Biso      1.000     C          0.000522  
         C4        1.0000    0.73380   0.85980   0.63960   Biso      1.000     C          -0.1629   
         C5        1.0000    0.66390   0.80800   0.68030   Biso      1.000     C          0.063819  
         C6        1.0000    0.62420   0.45960   0.88800   Biso      1.000     C          0.088048  
         C7        1.0000    0.50170   0.43350   0.86090   Biso      1.000     C          -0.20389  
         C8        1.0000    0.46750   0.33630   0.84760   Biso      1.000     C          0.1156    
         C9        1.0000    0.56080   0.26930   0.86080   Biso      1.000     C          -0.197451           
         C10       1.0000    0.68080   0.30050   0.88880   Biso      1.000     C          0.093212  
         C11       1.0000    0.08540   0.26490   0.75990   Biso      1.000     C          -0.120619           
         C12       1.0000    0.92920   0.89350   0.61810   Biso      1.000     C          0.580774  
         C13       1.0000    0.15510   0.20990   0.72040   Biso      1.000     C          0.002421  
         C14       1.0000    0.33610   0.30800   0.81970   Biso      1.000     C          0.06382   
         C15       1.0000    0.26620   0.35980   0.86040   Biso      1.000     C          -0.1629   
         C16       1.0000    0.14100   0.33780   0.83200   Biso      1.000     C          0.000525  
         C17       1.0000    0.09470   0.13060   0.64260   Biso      1.000     C          0.590917  
         C18       1.0000    0.07080   0.39350   0.88190   Biso      1.000     C          0.580775  
         C19       1.0000    0.37580   0.95960   0.61200   Biso      1.000     C          0.088053  
         C20       1.0000    0.49830   0.93350   0.63910   Biso      1.000     C          -0.203889           
         C21       1.0000    0.53250   0.83630   0.65240   Biso      1.000     C          0.115603  
         C22       1.0000    0.43920   0.76930   0.63920   Biso      1.000     C          -0.19745  
         C23       1.0000    0.31920   0.80050   0.61120   Biso      1.000     C          0.093214  
         C24       1.0000    0.28140   0.23070   0.75140   Biso      1.000     C          -0.170049           
         C25       1.0000    0.37580   0.54040   0.11200   Biso      1.000     C          0.088048  
         C26       1.0000    0.49830   0.56650   0.13910   Biso      1.000     C          -0.20389  
         C27       1.0000    0.53250   0.66370   0.15240   Biso      1.000     C          0.115598  
         C28       1.0000    0.07080   0.10650   0.38190   Biso      1.000     C          0.580776  
         C29       1.0000    0.09470   0.36940   0.14260   Biso      1.000     C          0.590915  
         C30       1.0000    0.14100   0.16220   0.33200   Biso      1.000     C          0.000522  
         C31       1.0000    0.26620   0.14020   0.36040   Biso      1.000     C          -0.162901           
         C32       1.0000    0.33610   0.19200   0.31970   Biso      1.000     C          0.06382   
         C33       1.0000    0.28140   0.26930   0.25140   Biso      1.000     C          -0.170051           
         C34       1.0000    0.15510   0.29010   0.22040   Biso      1.000     C          0.00242   
         C35       1.0000    0.08540   0.23510   0.25990   Biso      1.000     C          -0.120619           
         C36       1.0000    0.68080   0.19950   0.38880   Biso      1.000     C          0.093204  
         C37       1.0000    0.56080   0.23070   0.36080   Biso      1.000     C          -0.197449           
         C38       1.0000    0.46750   0.16370   0.34760   Biso      1.000     C          0.115594  
         C39       1.0000    0.50170   0.06650   0.36090   Biso      1.000     C          -0.203892           
         C40       1.0000    0.62420   0.04040   0.38800   Biso      1.000     C          0.088044  
         C41       1.0000    0.92920   0.60650   0.11810   Biso      1.000     C          0.580775  
         C42       1.0000    0.90530   0.86940   0.35740   Biso      1.000     C          0.590912  
         C43       1.0000    0.85900   0.66220   0.16800   Biso      1.000     C          0.000523  
         C44       1.0000    0.73380   0.64020   0.13960   Biso      1.000     C          -0.1629   
         C45       1.0000    0.66390   0.69200   0.18030   Biso      1.000     C          0.06382   
         C46       1.0000    0.71860   0.76930   0.24860   Biso      1.000     C          -0.170049           
         C47       1.0000    0.84490   0.79010   0.27960   Biso      1.000     C          0.002421  
         C48       1.0000    0.91460   0.73510   0.24010   Biso      1.000     C          -0.120617           
         C49       1.0000    0.31920   0.69950   0.11120   Biso      1.000     C          0.093208  
         C50       1.0000    0.43920   0.73070   0.13920   Biso      1.000     C          -0.197448           
         C51       1.0000    0.91460   0.76490   0.74010   Biso      1.000     C          -0.120615           
         C52       1.0000    0.71860   0.73070   0.74860   Biso      1.000     C          -0.170047           
         Co1       1.0000    0.89350   0.44187   0.95004   Biso      1.000     Co          0.726171  
         Co2       1.0000    0.10650   0.94187   0.54996   Biso      1.000     Co          0.726182  
         Co3       1.0000    0.10650   0.55813   0.04996   Biso      1.000     Co          0.726169  
         Co4       1.0000    0.89350   0.05813   0.45004   Biso      1.000     Co          0.726158  
         H1        1.0000    0.30390   0.08890   0.40840   Biso      1.000     H          0.116727  
         H2        1.0000    0.64580   0.52610   0.89630   Biso      1.000     H          0.099463  
         H3        1.0000    0.44100   0.48180   0.85140   Biso      1.000     H          0.132578  
         H4        1.0000    0.74320   0.25360   0.89840   Biso      1.000     H          0.104854  
         H5        1.0000    0.99920   0.25220   0.73720   Biso      1.000     H          0.133098  
         H6        1.0000    0.32960   0.19240   0.72620   Biso      1.000     H          0.132075  
         H7        1.0000    0.30390   0.41110   0.90840   Biso      1.000     H          0.116728  
         H8        1.0000    0.35420   0.02610   0.60370   Biso      1.000     H          0.099464  
         H9        1.0000    0.55900   0.98180   0.64860   Biso      1.000     H          0.132579  
         H10       1.0000    0.45840   0.70250   0.64940   Biso      1.000     H          0.131995  
         H11       1.0000    0.25680   0.75360   0.60160   Biso      1.000     H          0.104855  
         H12       1.0000    0.00080   0.75220   0.76280   Biso      1.000     H          0.133098  
         H13       1.0000    0.54160   0.20250   0.85060   Biso      1.000     H          0.131994  
         H14       1.0000    0.69610   0.91110   0.59160   Biso      1.000     H          0.116728  
         H15       1.0000    0.35420   0.47390   0.10370   Biso      1.000     H          0.099463  
         H16       1.0000    0.55900   0.51820   0.14860   Biso      1.000     H          0.132578  
         H17       1.0000    0.45840   0.79750   0.14940   Biso      1.000     H          0.131994  
         H18       1.0000    0.25680   0.74640   0.10160   Biso      1.000     H          0.104854  
         H19       1.0000    0.00080   0.74780   0.26280   Biso      1.000     H          0.133098  
         H20       1.0000    0.67040   0.80760   0.27380   Biso      1.000     H          0.132076  
         H21       1.0000    0.69610   0.58890   0.09160   Biso      1.000     H          0.116728  
         H22       1.0000    0.64580   0.97390   0.39630   Biso      1.000     H          0.099461  
         H23       1.0000    0.44100   0.01820   0.35140   Biso      1.000     H          0.132577  
         H24       1.0000    0.54160   0.29750   0.35060   Biso      1.000     H          0.131993  
         H25       1.0000    0.74320   0.24640   0.39840   Biso      1.000     H          0.104854  
         H26       1.0000    0.99920   0.24780   0.23720   Biso      1.000     H          0.133097  
         H27       1.0000    0.32960   0.30760   0.22620   Biso      1.000     H          0.132075  
         H28       1.0000    0.67040   0.69240   0.77380   Biso      1.000     H          0.132076  
         N1        1.0000    0.71380   0.10620   0.40300   Biso      1.000     N          -0.201094           
         N2        1.0000    0.28620   0.60620   0.09700   Biso      1.000     N          -0.201096           
         N3        1.0000    0.71380   0.39380   0.90300   Biso      1.000     N          -0.201096           
         N4        1.0000    0.28620   0.89380   0.59700   Biso      1.000     N          -0.201097           
         O1        1.0000    0.12640   0.03850   0.44270   Biso      1.000     O          -0.543785           
         O2        1.0000    0.96070   0.13330   0.36140   Biso      1.000     O          -0.499578           
         O3        1.0000    0.84170   0.94370   0.35040   Biso      1.000     O          -0.511681           
         O4        1.0000    0.01590   0.85460   0.42470   Biso      1.000     O          -0.501231           
         O5        1.0000    0.87360   0.53850   0.05730   Biso      1.000     O          -0.543777           
         O6        1.0000    0.03930   0.63330   0.13860   Biso      1.000     O          -0.499572           
         O7        1.0000    0.84170   0.55630   0.85040   Biso      1.000     O          -0.511687           
         O8        1.0000    0.01590   0.64540   0.92470   Biso      1.000     O          -0.501235           
         O9        1.0000    0.03930   0.86670   0.63860   Biso      1.000     O          -0.499566           
         O10       1.0000    0.15830   0.05630   0.64960   Biso      1.000     O          -0.51169  
         O11       1.0000    0.98410   0.14540   0.57530   Biso      1.000     O          -0.501237           
         O12       1.0000    0.12640   0.46150   0.94270   Biso      1.000     O          -0.543777           
         O13       1.0000    0.96070   0.36670   0.86140   Biso      1.000     O          -0.499571           
         O14       1.0000    0.98410   0.35460   0.07530   Biso      1.000     O          -0.501233           
         O15       1.0000    0.87360   0.96150   0.55730   Biso      1.000     O          -0.543768           
         O16       1.0000    0.15830   0.44370   0.14960   Biso      1.000     O          -0.511686 