
##########################################################################
#               Crystallographic Information Format file
#               Produced by PyCifRW module
#
#  This is a CIF file.  CIF has been adopted by the International
#  Union of Crystallography as the standard for data archiving and
#  transmission.
#
#  For information on this file format, follow the CIF links at
#  http://www.iucr.org
##########################################################################

data_image0

_cell_length_a                          6.188
_cell_length_b                          8.7339
_cell_length_c                          9.312
_cell_angle_alpha                       64.553
_cell_angle_beta                        84.64
_cell_angle_gamma                       84.1397
_symmetry_space_group_name_H-M          'P 1'
_symmetry_int_tables_number             1
loop_
  _symmetry_equiv_pos_as_xyz
         'x, y, z' 
loop_
  _atom_site_label
  _atom_site_occupancy
  _atom_site_fract_x
  _atom_site_fract_y
  _atom_site_fract_z
  _atom_site_thermal_displace_type
  _atom_site_B_iso_or_equiv
  _atom_site_type_symbol
  _atom_site_charge
         Ba1       1.0000    0.72173   0.45967   0.70927   Biso      1.000     Ba          1.454768  
         Ba2       1.0000    0.78572   0.86353   0.91879   Biso      1.000     Ba          1.505651  
         Ba3       1.0000    0.27827   0.54033   0.29073   Biso      1.000     Ba          1.454767  
         Ba4       1.0000    0.21428   0.13647   0.08121   Biso      1.000     Ba          1.505651  
         C1        1.0000    0.61120   0.78380   0.31410   Biso      1.000     C          0.49673100000000003           
         C2        1.0000    0.86620   0.77840   0.31950   Biso      1.000     C          0.48578999999999994           
         C3        1.0000    0.82160   0.41820   0.17300   Biso      1.000     C          0.522971  
         C4        1.0000    0.67300   0.31810   0.12910   Biso      1.000     C          0.498992  
         C5        1.0000    0.13380   0.22160   0.68050   Biso      1.000     C          0.485789  
         C6        1.0000    0.32700   0.68190   0.87090   Biso      1.000     C          0.498993  
         C7        1.0000    0.17840   0.58180   0.82700   Biso      1.000     C          0.5229699999999999  
         C8        1.0000    0.38880   0.21620   0.68590   Biso      1.000     C          0.49673199999999995           
         O1        1.0000    0.01970   0.37070   0.18620   Biso      1.000     O          -0.618883           
         O2        1.0000    0.95160   0.68560   0.45050   Biso      1.000     O          -0.572592           
         O3        1.0000    0.97270   0.85550   0.18720   Biso      1.000     O          -0.663671           
         O4        1.0000    0.47660   0.31260   0.17800   Biso      1.000     O          -0.609086           
         O5        1.0000    0.75680   0.24690   0.04150   Biso      1.000     O          -0.6346470000000001           
         O6        1.0000    0.73770   0.54640   0.19240   Biso      1.000     O          -0.623033           
         O7        1.0000    0.48920   0.30610   0.55360   Biso      1.000     O          -0.595001           
         O8        1.0000    0.26230   0.45360   0.80760   Biso      1.000     O          -0.623033           
         O9        1.0000    0.04840   0.31440   0.54950   Biso      1.000     O          -0.572592           
         O10       1.0000    0.02730   0.14450   0.81280   Biso      1.000     O          -0.663671           
         O11       1.0000    0.52340   0.68740   0.82200   Biso      1.000     O          -0.609086           
         O12       1.0000    0.24320   0.75310   0.95850   Biso      1.000     O          -0.634646           
         O13       1.0000    0.52350   0.86680   0.18310   Biso      1.000     O          -0.647989           
         O14       1.0000    0.98030   0.62930   0.81380   Biso      1.000     O          -0.618883           
         O15       1.0000    0.47650   0.13320   0.81690   Biso      1.000     O          -0.647989           
         O16       1.0000    0.51080   0.69390   0.44640   Biso      1.000     O          -0.595001 