
##########################################################################
#               Crystallographic Information Format file
#               Produced by PyCifRW module
#
#  This is a CIF file.  CIF has been adopted by the International
#  Union of Crystallography as the standard for data archiving and
#  transmission.
#
#  For information on this file format, follow the CIF links at
#  http://www.iucr.org
##########################################################################

data_image0

_cell_length_a                          26.888
_cell_length_b                          26.888
_cell_length_c                          7.2385
_cell_angle_alpha                       90
_cell_angle_beta                        90
_cell_angle_gamma                       120
_symmetry_space_group_name_H-M          'P 1'
_symmetry_int_tables_number             1
loop_
  _symmetry_equiv_pos_as_xyz
         'x, y, z' 
loop_
  _atom_site_label
  _atom_site_occupancy
  _atom_site_fract_x
  _atom_site_fract_y
  _atom_site_fract_z
  _atom_site_thermal_displace_type
  _atom_site_B_iso_or_equiv
  _atom_site_type_symbol
  _atom_site_charge
         C1        1.0000    0.34627   0.16763   0.98483   Biso      1.000     C          -0.22420900000000002          
         C2        1.0000    0.87870   0.20690   0.27920   Biso      1.000     C          -0.153149           
         C3        1.0000    0.92590   0.24460   0.41380   Biso      1.000     C          0.638285  
         C4        1.0000    0.91127   0.65203   0.91953   Biso      1.000     C          0.638088  
         C5        1.0000    0.87357   0.66153   0.05413   Biso      1.000     C          -0.152577           
         C6        1.0000    0.82137   0.65373   0.98483   Biso      1.000     C          -0.224189           
         C7        1.0000    0.65813   0.87747   0.91117   Biso      1.000     C          0.299033  
         C8        1.0000    0.78067   0.65813   0.08883   Biso      1.000     C          0.299141  
         C9        1.0000    0.65373   0.83237   0.01517   Biso      1.000     C          -0.22420900000000002          
         C10       1.0000    0.66153   0.78797   0.94587   Biso      1.000     C          -0.152642           
         C11       1.0000    0.65203   0.74077   0.08047   Biso      1.000     C          0.638356  
         C12       1.0000    0.01293   0.50097   0.31817   Biso      1.000     C          -0.223102           
         C13       1.0000    0.74077   0.08873   0.91953   Biso      1.000     C          0.638616  
         C14       1.0000    0.78797   0.12643   0.05413   Biso      1.000     C          -0.152873           
         C15       1.0000    0.83237   0.17863   0.98483   Biso      1.000     C          -0.224113           
         C16       1.0000    0.99147   0.54413   0.57783   Biso      1.000     C          0.298429  
         C17       1.0000    0.83430   0.15470   0.34850   Biso      1.000     C          -0.224733           
         C18       1.0000    0.00513   0.54537   0.38747   Biso      1.000     C          -0.15332  
         C19       1.0000    0.00853   0.45587   0.42217   Biso      1.000     C          0.29843000000000003           
         C20       1.0000    0.33847   0.21203   0.05413   Biso      1.000     C          -0.152642           
         C21       1.0000    0.16763   0.82137   0.01517   Biso      1.000     C          -0.224113           
         C22       1.0000    0.21203   0.87357   0.94587   Biso      1.000     C          -0.152873           
         C23       1.0000    0.25923   0.91127   0.08047   Biso      1.000     C          0.638616  
         C24       1.0000    0.24460   0.31870   0.58620   Biso      1.000     C          0.638279  
         C25       1.0000    0.07410   0.75540   0.58620   Biso      1.000     C          0.638285  
         C26       1.0000    0.12130   0.79310   0.72080   Biso      1.000     C          -0.153149           
         C27       1.0000    0.16570   0.84530   0.65150   Biso      1.000     C          -0.224733           
         C28       1.0000    0.45587   0.44733   0.57783   Biso      1.000     C          0.29849699999999996           
         C29       1.0000    0.20690   0.32820   0.72080   Biso      1.000     C          -0.153157           
         C30       1.0000    0.50097   0.48803   0.68183   Biso      1.000     C          -0.22335500000000003          
         C31       1.0000    0.54537   0.54023   0.61253   Biso      1.000     C          -0.153341           
         C32       1.0000    0.59257   0.57793   0.74713   Biso      1.000     C          0.638004  
         C33       1.0000    0.15470   0.32040   0.65150   Biso      1.000     C          -0.224726           
         C34       1.0000    0.11400   0.32480   0.75550   Biso      1.000     C          0.298973  
         C35       1.0000    0.21080   0.88600   0.75550   Biso      1.000     C          0.29909   
         C36       1.0000    0.78920   0.11400   0.24450   Biso      1.000     C          0.29909   
         C37       1.0000    0.98707   0.49903   0.68183   Biso      1.000     C          -0.22310100000000002          
         C38       1.0000    0.99487   0.45463   0.61253   Biso      1.000     C          -0.153321           
         C39       1.0000    0.08873   0.34797   0.08047   Biso      1.000     C          0.638088  
         C40       1.0000    0.40743   0.42207   0.25287   Biso      1.000     C          0.638004  
         C41       1.0000    0.45463   0.45977   0.38747   Biso      1.000     C          -0.15334  
         C42       1.0000    0.49903   0.51197   0.31817   Biso      1.000     C          -0.22335700000000003          
         C43       1.0000    0.55267   0.00853   0.57783   Biso      1.000     C          0.298392  
         C44       1.0000    0.67960   0.83430   0.65150   Biso      1.000     C          -0.22473  
         C45       1.0000    0.51197   0.01293   0.68183   Biso      1.000     C          -0.223282           
         C46       1.0000    0.45977   0.00513   0.61253   Biso      1.000     C          -0.15328699999999998          
         C47       1.0000    0.67180   0.87870   0.72080   Biso      1.000     C          -0.153113           
         C48       1.0000    0.42207   0.01463   0.74713   Biso      1.000     C          0.637713  
         C49       1.0000    0.34187   0.12253   0.08883   Biso      1.000     C          0.299033  
         C50       1.0000    0.54413   0.55267   0.42217   Biso      1.000     C          0.298498  
         C51       1.0000    0.88600   0.67520   0.24450   Biso      1.000     C          0.29897199999999996           
         C52       1.0000    0.34797   0.25923   0.91953   Biso      1.000     C          0.638356  
         C53       1.0000    0.84530   0.67960   0.34850   Biso      1.000     C          -0.224725           
         C54       1.0000    0.79310   0.67180   0.27920   Biso      1.000     C          -0.153157           
         C55       1.0000    0.75540   0.68130   0.41380   Biso      1.000     C          0.638279  
         C56       1.0000    0.67520   0.78920   0.75550   Biso      1.000     C          0.298979  
         C57       1.0000    0.98537   0.40743   0.74713   Biso      1.000     C          0.63789   
         C58       1.0000    0.12253   0.78067   0.91117   Biso      1.000     C          0.298975  
         C59       1.0000    0.17863   0.34627   0.01517   Biso      1.000     C          -0.224189           
         C60       1.0000    0.01463   0.59257   0.25287   Biso      1.000     C          0.63789   
         C61       1.0000    0.87747   0.21933   0.08883   Biso      1.000     C          0.298975  
         C62       1.0000    0.57793   0.98537   0.25287   Biso      1.000     C          0.637713  
         C63       1.0000    0.32480   0.21080   0.24450   Biso      1.000     C          0.298978  
         C64       1.0000    0.54023   0.99487   0.38747   Biso      1.000     C          -0.15328699999999998          
         C65       1.0000    0.32040   0.16570   0.34850   Biso      1.000     C          -0.22472899999999998          
         C66       1.0000    0.12643   0.33847   0.94587   Biso      1.000     C          -0.152577           
         C67       1.0000    0.32820   0.12130   0.27920   Biso      1.000     C          -0.153113           
         C68       1.0000    0.48803   0.98707   0.31817   Biso      1.000     C          -0.223284           
         C69       1.0000    0.44733   0.99147   0.42217   Biso      1.000     C          0.29839299999999996           
         C70       1.0000    0.21933   0.34187   0.91117   Biso      1.000     C          0.299141  
         C71       1.0000    0.68130   0.92590   0.58620   Biso      1.000     C          0.6382680000000001  
         C72       1.0000    0.31870   0.07410   0.41380   Biso      1.000     C          0.6382680000000001  
         Cd1       1.0000    0.03789   0.64695   0.86435   Biso      1.000     Cd          1.0659040000000002  
         Cd2       1.0000    0.37123   0.31361   0.53101   Biso      1.000     Cd          1.065736  
         Cd3       1.0000    0.70456   0.98028   0.19768   Biso      1.000     Cd          1.066043  
         Cd4       1.0000    0.60905   0.96211   0.86435   Biso      1.000     Cd          1.065928  
         Cd5       1.0000    0.94239   0.62877   0.53101   Biso      1.000     Cd          1.065726  
         Cd6       1.0000    0.27572   0.29544   0.19768   Biso      1.000     Cd          1.065974  
         Cd7       1.0000    0.72428   0.70456   0.80232   Biso      1.000     Cd          1.065974  
         Cd8       1.0000    0.29544   0.01972   0.80232   Biso      1.000     Cd          1.066043  
         Cd9       1.0000    0.68639   0.05761   0.53101   Biso      1.000     Cd          1.065727  
         Cd10      1.0000    0.96211   0.35305   0.13565   Biso      1.000     Cd          1.0659040000000002  
         Cd11      1.0000    0.98028   0.27572   0.80232   Biso      1.000     Cd          1.065966  
         Cd12      1.0000    0.01972   0.72428   0.19768   Biso      1.000     Cd          1.065966  
         Cd13      1.0000    0.35305   0.39095   0.86435   Biso      1.000     Cd          1.065963  
         Cd14      1.0000    0.62877   0.68639   0.46899   Biso      1.000     Cd          1.065736  
         Cd15      1.0000    0.64695   0.60905   0.13565   Biso      1.000     Cd          1.065963  
         Cd16      1.0000    0.31361   0.94239   0.46899   Biso      1.000     Cd          1.065727  
         Cd17      1.0000    0.05761   0.37123   0.46899   Biso      1.000     Cd          1.065726  
         Cd18      1.0000    0.39095   0.03789   0.13565   Biso      1.000     Cd          1.065928  
         H1        1.0000    0.48036   0.97840   0.19339   Biso      1.000     H          0.140003  
         H2        1.0000    0.31173   0.16470   0.47328   Biso      1.000     H          0.140708  
         H3        1.0000    0.68827   0.83530   0.52672   Biso      1.000     H          0.140708  
         H4        1.0000    0.51964   0.02160   0.80661   Biso      1.000     H          0.140003  
         H5        1.0000    0.97840   0.49803   0.80661   Biso      1.000     H          0.139811  
         H6        1.0000    0.83137   0.18630   0.86005   Biso      1.000     H          0.14040899999999998           
         H7        1.0000    0.81370   0.64506   0.86005   Biso      1.000     H          0.140272  
         H8        1.0000    0.49803   0.51964   0.19339   Biso      1.000     H          0.139977  
         H9        1.0000    0.35494   0.16863   0.86005   Biso      1.000     H          0.140298  
         H10       1.0000    0.02160   0.50197   0.19339   Biso      1.000     H          0.139811  
         H11       1.0000    0.83530   0.14703   0.47328   Biso      1.000     H          0.140708  
         H12       1.0000    0.16470   0.85297   0.52672   Biso      1.000     H          0.140708  
         H13       1.0000    0.14703   0.31173   0.52672   Biso      1.000     H          0.140706  
         H14       1.0000    0.50197   0.48036   0.80661   Biso      1.000     H          0.139977  
         H15       1.0000    0.16863   0.81370   0.13995   Biso      1.000     H          0.14040899999999998           
         H16       1.0000    0.85297   0.68827   0.47328   Biso      1.000     H          0.140706  
         H17       1.0000    0.64506   0.83137   0.13995   Biso      1.000     H          0.140298  
         H18       1.0000    0.18630   0.35494   0.13995   Biso      1.000     H          0.140272  
         O1        1.0000    0.34237   0.30061   0.97413   Biso      1.000     O          -0.618618           
         O2        1.0000    0.36605   0.37509   0.30747   Biso      1.000     O          -0.61765  
         O3        1.0000    0.01883   0.41739   0.33807   Biso      1.000     O          -0.608087           
         O4        1.0000    0.35217   0.08405   0.00473   Biso      1.000     O          -0.608499           
         O5        1.0000    0.91595   0.26811   0.00473   Biso      1.000     O          -0.608498           
         O6        1.0000    0.74347   0.10773   0.76143   Biso      1.000     O          -0.539979           
         O7        1.0000    0.69939   0.04175   0.97413   Biso      1.000     O          -0.61858  
         O8        1.0000    0.24928   0.93478   0.67140   Biso      1.000     O          -0.608378           
         O9        1.0000    0.07680   0.77440   0.42810   Biso      1.000     O          -0.5399390000000001           
         O10       1.0000    0.00903   0.63395   0.30747   Biso      1.000     O          -0.617548           
         O11       1.0000    0.03093   0.58987   0.09477   Biso      1.000     O          -0.539575           
         O12       1.0000    0.36427   0.25653   0.76143   Biso      1.000     O          -0.5397689999999999           
         O13       1.0000    0.03272   0.70842   0.64080   Biso      1.000     O          -0.617984           
         O14       1.0000    0.08405   0.73189   0.99527   Biso      1.000     O          -0.608498           
         O15       1.0000    0.69760   0.92320   0.42810   Biso      1.000     O          -0.5399579999999999           
         O16       1.0000    0.65763   0.69939   0.02587   Biso      1.000     O          -0.618618           
         O17       1.0000    0.98117   0.58261   0.66193   Biso      1.000     O          -0.608086           
         O18       1.0000    0.96907   0.41013   0.90523   Biso      1.000     O          -0.539575           
         O19       1.0000    0.99097   0.36605   0.69253   Biso      1.000     O          -0.617548           
         O20       1.0000    0.31450   0.24928   0.32860   Biso      1.000     O          -0.60833  
         O21       1.0000    0.30240   0.07680   0.57190   Biso      1.000     O          -0.5399579999999999           
         O22       1.0000    0.32430   0.03272   0.35920   Biso      1.000     O          -0.617992           
         O23       1.0000    0.63573   0.74347   0.23857   Biso      1.000     O          -0.5397689999999999           
         O24       1.0000    0.26811   0.35217   0.99527   Biso      1.000     O          -0.608578           
         O25       1.0000    0.04175   0.34237   0.02587   Biso      1.000     O          -0.618399           
         O26       1.0000    0.60145   0.01883   0.66193   Biso      1.000     O          -0.60795  
         O27       1.0000    0.44107   0.03093   0.90523   Biso      1.000     O          -0.539505           
         O28       1.0000    0.37509   0.00903   0.69253   Biso      1.000     O          -0.6175649999999999           
         O29       1.0000    0.93478   0.68550   0.32860   Biso      1.000     O          -0.6083770000000001           
         O30       1.0000    0.77440   0.69760   0.57190   Biso      1.000     O          -0.539929           
         O31       1.0000    0.70842   0.67570   0.35920   Biso      1.000     O          -0.6179899999999999           
         O32       1.0000    0.10773   0.36427   0.23857   Biso      1.000     O          -0.539616           
         O33       1.0000    0.64783   0.91595   0.99527   Biso      1.000     O          -0.608499           
         O34       1.0000    0.96728   0.29158   0.35920   Biso      1.000     O          -0.617984           
         O35       1.0000    0.92320   0.22560   0.57190   Biso      1.000     O          -0.5399390000000001           
         O36       1.0000    0.67570   0.96728   0.64080   Biso      1.000     O          -0.617992           
         O37       1.0000    0.39855   0.98117   0.33807   Biso      1.000     O          -0.60795  
         O38       1.0000    0.55893   0.96907   0.09477   Biso      1.000     O          -0.539505           
         O39       1.0000    0.62491   0.99097   0.30747   Biso      1.000     O          -0.6175649999999999           
         O40       1.0000    0.73189   0.64783   0.00473   Biso      1.000     O          -0.608578           
         O41       1.0000    0.89227   0.63573   0.76143   Biso      1.000     O          -0.539616           
         O42       1.0000    0.95825   0.65763   0.97413   Biso      1.000     O          -0.618399           
         O43       1.0000    0.06522   0.31450   0.67140   Biso      1.000     O          -0.608378           
         O44       1.0000    0.22560   0.30240   0.42810   Biso      1.000     O          -0.539929           
         O45       1.0000    0.29158   0.32430   0.64080   Biso      1.000     O          -0.6179899999999999           
         O46       1.0000    0.41013   0.44107   0.09477   Biso      1.000     O          -0.5395949999999999           
         O47       1.0000    0.25653   0.89227   0.23857   Biso      1.000     O          -0.539979           
         O48       1.0000    0.30061   0.95825   0.02587   Biso      1.000     O          -0.61858  
         O49       1.0000    0.41739   0.39855   0.66193   Biso      1.000     O          -0.608082           
         O50       1.0000    0.58987   0.55893   0.90523   Biso      1.000     O          -0.5395949999999999           
         O51       1.0000    0.63395   0.62491   0.69253   Biso      1.000     O          -0.61765  
         O52       1.0000    0.75072   0.06522   0.32860   Biso      1.000     O          -0.608378           
         O53       1.0000    0.68550   0.75072   0.67140   Biso      1.000     O          -0.60833  
         O54       1.0000    0.58261   0.60145   0.33807   Biso      1.000     O          -0.608082 