
##########################################################################
#               Crystallographic Information Format file
#               Produced by PyCifRW module
#
#  This is a CIF file.  CIF has been adopted by the International
#  Union of Crystallography as the standard for data archiving and
#  transmission.
#
#  For information on this file format, follow the CIF links at
#  http://www.iucr.org
##########################################################################

data_image0

_cell_length_a                          12.2986
_cell_length_b                          12.2986
_cell_length_c                          5.2444
_cell_angle_alpha                       90
_cell_angle_beta                        90
_cell_angle_gamma                       90
_symmetry_space_group_name_H-M          'P 1'
_symmetry_int_tables_number             1
loop_
  _symmetry_equiv_pos_as_xyz
         'x, y, z' 
loop_
  _atom_site_label
  _atom_site_occupancy
  _atom_site_fract_x
  _atom_site_fract_y
  _atom_site_fract_z
  _atom_site_thermal_displace_type
  _atom_site_B_iso_or_equiv
  _atom_site_type_symbol
  _atom_site_charge
         C1        1.0000    0.79440   0.70680   0.03510   Biso      1.000     C          -0.019374           
         C2        1.0000    0.34370   0.68080   0.30380   Biso      1.000     C          -0.243215           
         C3        1.0000    0.20450   0.81380   0.48610   Biso      1.000     C          0.57774   
         C4        1.0000    0.31920   0.34370   0.55380   Biso      1.000     C          -0.243214           
         C5        1.0000    0.29320   0.79440   0.28510   Biso      1.000     C          -0.019372           
         C6        1.0000    0.70680   0.20560   0.78510   Biso      1.000     C          -0.019372           
         C7        1.0000    0.68080   0.65630   0.05380   Biso      1.000     C          -0.243215           
         C8        1.0000    0.18620   0.20450   0.73610   Biso      1.000     C          0.577741  
         C9        1.0000    0.49780   0.89710   0.70750   Biso      1.000     C          0.582668  
         C10       1.0000    0.83060   0.52460   0.21640   Biso      1.000     C          -0.045724           
         C11       1.0000    0.81380   0.79550   0.23610   Biso      1.000     C          0.577742  
         C12       1.0000    0.79550   0.18620   0.98610   Biso      1.000     C          0.577741  
         C13       1.0000    0.50220   0.10290   0.20750   Biso      1.000     C          0.582668  
         C14       1.0000    0.52460   0.16940   0.96640   Biso      1.000     C          -0.045725           
         C15       1.0000    0.10290   0.49780   0.95750   Biso      1.000     C          0.582668  
         C16       1.0000    0.65630   0.31920   0.80380   Biso      1.000     C          -0.243214           
         C17       1.0000    0.16940   0.47540   0.71640   Biso      1.000     C          -0.045724           
         C18       1.0000    0.20560   0.29320   0.53510   Biso      1.000     C          -0.019374           
         C19       1.0000    0.89710   0.50220   0.45750   Biso      1.000     C          0.582668  
         C20       1.0000    0.47540   0.83060   0.46640   Biso      1.000     C          -0.045725           
         H1        1.0000    0.40430   0.90650   0.13120   Biso      1.000     H          0.257535  
         H2        1.0000    0.19680   0.26120   0.36520   Biso      1.000     H          0.118053  
         H3        1.0000    0.38100   0.66180   0.14700   Biso      1.000     H          0.11124   
         H4        1.0000    0.28860   0.62640   0.33880   Biso      1.000     H          0.149749  
         H5        1.0000    0.26120   0.80320   0.11520   Biso      1.000     H          0.118052  
         H6        1.0000    0.59570   0.09350   0.63120   Biso      1.000     H          0.257535  
         H7        1.0000    0.45920   0.17150   0.85970   Biso      1.000     H          0.115903  
         H8        1.0000    0.61900   0.33820   0.64700   Biso      1.000     H          0.111238  
         H9        1.0000    0.71140   0.37360   0.83880   Biso      1.000     H          0.149747  
         H10       1.0000    0.54080   0.82850   0.35970   Biso      1.000     H          0.115904  
         H11       1.0000    0.37360   0.28860   0.58880   Biso      1.000     H          0.14975   
         H12       1.0000    0.73880   0.19680   0.61520   Biso      1.000     H          0.118051  
         H13       1.0000    0.17150   0.54080   0.60970   Biso      1.000     H          0.115904  
         H14       1.0000    0.90650   0.59570   0.88120   Biso      1.000     H          0.257535  
         H15       1.0000    0.82850   0.45920   0.10970   Biso      1.000     H          0.115903  
         H16       1.0000    0.66180   0.61900   0.89700   Biso      1.000     H          0.111239  
         H17       1.0000    0.33820   0.38100   0.39700   Biso      1.000     H          0.11124   
         H18       1.0000    0.80320   0.73880   0.86520   Biso      1.000     H          0.118052  
         H19       1.0000    0.09350   0.40430   0.38120   Biso      1.000     H          0.257536  
         H20       1.0000    0.62640   0.71140   0.08880   Biso      1.000     H          0.149748  
         N1        1.0000    0.12460   0.38230   0.56670   Biso      1.000     N          -0.357211           
         N2        1.0000    0.87540   0.61770   0.06670   Biso      1.000     N          -0.35721  
         N3        1.0000    0.38230   0.87540   0.31670   Biso      1.000     N          -0.35721  
         N4        1.0000    0.61770   0.12460   0.81670   Biso      1.000     N          -0.357212           
         Ni1       1.0000    0.01225   0.67929   0.25610   Biso      1.000     Ni          0.869521  
         Ni2       1.0000    0.98775   0.32071   0.75610   Biso      1.000     Ni          0.869527  
         Ni3       1.0000    0.32071   0.01225   0.50610   Biso      1.000     Ni          0.869527  
         Ni4       1.0000    0.67929   0.98775   0.00610   Biso      1.000     Ni          0.869531  
         O1        1.0000    0.12774   0.74430   0.50520   Biso      1.000     O          -0.553445           
         O2        1.0000    0.96850   0.56929   0.52530   Biso      1.000     O          -0.505584           
         O3        1.0000    0.74430   0.87226   0.25520   Biso      1.000     O          -0.553447           
         O4        1.0000    0.10260   0.20920   0.87410   Biso      1.000     O          -0.50413  
         O5        1.0000    0.89740   0.79080   0.37410   Biso      1.000     O          -0.504129           
         O6        1.0000    0.79080   0.10260   0.12410   Biso      1.000     O          -0.504131           
         O7        1.0000    0.58370   0.87310   0.82600   Biso      1.000     O          -0.525701           
         O8        1.0000    0.87310   0.41630   0.57600   Biso      1.000     O          -0.5257   
         O9        1.0000    0.56929   0.03150   0.27530   Biso      1.000     O          -0.505587           
         O10       1.0000    0.41630   0.12690   0.32600   Biso      1.000     O          -0.5257   
         O11       1.0000    0.43071   0.96850   0.77530   Biso      1.000     O          -0.505584           
         O12       1.0000    0.12690   0.58370   0.07600   Biso      1.000     O          -0.525701           
         O13       1.0000    0.03150   0.43071   0.02530   Biso      1.000     O          -0.505584           
         O14       1.0000    0.25570   0.12774   0.75520   Biso      1.000     O          -0.553447           
         O15       1.0000    0.20920   0.89740   0.62410   Biso      1.000     O          -0.504129           
         O16       1.0000    0.87226   0.25570   0.00520   Biso      1.000     O          -0.553446           
         S1        1.0000    0.43873   0.69150   0.56643   Biso      1.000     S          -0.028028           
         S2        1.0000    0.30850   0.43873   0.81643   Biso      1.000     S          -0.028025           
         S3        1.0000    0.69150   0.56127   0.31643   Biso      1.000     S          -0.028031           
         S4        1.0000    0.56127   0.30850   0.06643   Biso      1.000     S          -0.028036 