
##########################################################################
#               Crystallographic Information Format file
#               Produced by PyCifRW module
#
#  This is a CIF file.  CIF has been adopted by the International
#  Union of Crystallography as the standard for data archiving and
#  transmission.
#
#  For information on this file format, follow the CIF links at
#  http://www.iucr.org
##########################################################################

data_image0

_cell_length_a                          11.737
_cell_length_b                          11.737
_cell_length_c                          12.313
_cell_angle_alpha                       72.0924
_cell_angle_beta                        72.0924
_cell_angle_gamma                       76.9133
_symmetry_space_group_name_H-M          'P 1'
_symmetry_int_tables_number             1
loop_
  _symmetry_equiv_pos_as_xyz
         'x, y, z' 
loop_
  _atom_site_label
  _atom_site_occupancy
  _atom_site_fract_x
  _atom_site_fract_y
  _atom_site_fract_z
  _atom_site_thermal_displace_type
  _atom_site_B_iso_or_equiv
  _atom_site_type_symbol
  _atom_site_charge
         Ag1       1.0000    0.95677   0.04323   0.75000   Biso      1.000     Ag          0.712142  
         Ag2       1.0000    0.94927   0.55609   0.74508   Biso      1.000     Ag          0.703369  
         Ag3       1.0000    0.44391   0.05073   0.75492   Biso      1.000     Ag          0.703364  
         Ag4       1.0000    0.05073   0.44391   0.25492   Biso      1.000     Ag          0.703364  
         Ag5       1.0000    0.55609   0.94927   0.24508   Biso      1.000     Ag          0.703367  
         Ag6       1.0000    0.04323   0.95677   0.25000   Biso      1.000     Ag          0.712142  
         C1        1.0000    0.87400   0.96540   0.57500   Biso      1.000     C          0.469102  
         C2        1.0000    0.93370   0.84370   0.64160   Biso      1.000     C          0.486676  
         C3        1.0000    0.95780   0.66840   0.36700   Biso      1.000     C          0.477749  
         C4        1.0000    0.87780   0.57400   0.45610   Biso      1.000     C          0.483337  
         C5        1.0000    0.33160   0.04220   0.13300   Biso      1.000     C          0.47775   
         C6        1.0000    0.43570   0.14230   0.50240   Biso      1.000     C          0.493104  
         C7        1.0000    0.14230   0.43570   0.00240   Biso      1.000     C          0.493105  
         C8        1.0000    0.96540   0.87400   0.07500   Biso      1.000     C          0.469103  
         C9        1.0000    0.84370   0.93370   0.14160   Biso      1.000     C          0.486675  
         C10       1.0000    0.17260   0.44800   0.87100   Biso      1.000     C          0.48149   
         C11       1.0000    0.44800   0.17260   0.37100   Biso      1.000     C          0.481492  
         C12       1.0000    0.03460   0.12600   0.92500   Biso      1.000     C          0.469102  
         C13       1.0000    0.66840   0.95780   0.86700   Biso      1.000     C          0.477749  
         C14       1.0000    0.15630   0.06630   0.85840   Biso      1.000     C          0.486675  
         C15       1.0000    0.55200   0.82740   0.62900   Biso      1.000     C          0.481489  
         C16       1.0000    0.85770   0.56430   0.99760   Biso      1.000     C          0.493105  
         C17       1.0000    0.82740   0.55200   0.12900   Biso      1.000     C          0.481491  
         C18       1.0000    0.12220   0.42600   0.54390   Biso      1.000     C          0.483337  
         C19       1.0000    0.04220   0.33160   0.63300   Biso      1.000     C          0.477749  
         C20       1.0000    0.56430   0.85770   0.49760   Biso      1.000     C          0.493107  
         C21       1.0000    0.12600   0.03460   0.42500   Biso      1.000     C          0.469104  
         C22       1.0000    0.06630   0.15630   0.35840   Biso      1.000     C          0.486675  
         C23       1.0000    0.57400   0.87780   0.95610   Biso      1.000     C          0.483337  
         C24       1.0000    0.42600   0.12220   0.04390   Biso      1.000     C          0.483337  
         Cr1       1.0000    0.20457   0.21381   0.47546   Biso      1.000     Cr          1.467348  
         Cr2       1.0000    0.21381   0.20457   0.97546   Biso      1.000     Cr          1.467346  
         Cr3       1.0000    0.79543   0.78619   0.52454   Biso      1.000     Cr          1.46735   
         Cr4       1.0000    0.78619   0.79543   0.02454   Biso      1.000     Cr          1.467351  
         O1        1.0000    0.79930   0.61550   0.53750   Biso      1.000     O          -0.500692           
         O2        1.0000    0.04060   0.63880   0.28400   Biso      1.000     O          -0.415257           
         O3        1.0000    0.89470   0.46930   0.44770   Biso      1.000     O          -0.398278           
         O4        1.0000    0.21110   0.34790   0.84140   Biso      1.000     O          -0.501973           
         O5        1.0000    0.15770   0.32730   0.06610   Biso      1.000     O          -0.518512           
         O6        1.0000    0.15470   0.54970   0.80220   Biso      1.000     O          -0.390294           
         O7        1.0000    0.10580   0.52540   0.04360   Biso      1.000     O          -0.396354           
         O8        1.0000    0.95420   0.81240   0.00930   Biso      1.000     O          -0.467545           
         O9        1.0000    0.75160   0.90460   0.12880   Biso      1.000     O          -0.533801           
         O10       1.0000    0.06300   0.88680   0.08290   Biso      1.000     O          -0.388341           
         O11       1.0000    0.22630   0.06850   0.11380   Biso      1.000     O          -0.52718  
         O12       1.0000    0.93150   0.77370   0.38620   Biso      1.000     O          -0.527181           
         O13       1.0000    0.38450   0.20070   0.96250   Biso      1.000     O          -0.500691           
         O14       1.0000    0.36120   0.95940   0.21600   Biso      1.000     O          -0.415255           
         O15       1.0000    0.53070   0.10530   0.05230   Biso      1.000     O          -0.398278           
         O16       1.0000    0.65210   0.78890   0.65860   Biso      1.000     O          -0.501973           
         O17       1.0000    0.67270   0.84230   0.43390   Biso      1.000     O          -0.518513           
         O18       1.0000    0.45030   0.84530   0.69780   Biso      1.000     O          -0.390291           
         O19       1.0000    0.47460   0.89420   0.45640   Biso      1.000     O          -0.396352           
         O20       1.0000    0.18760   0.04580   0.49070   Biso      1.000     O          -0.467546           
         O21       1.0000    0.09540   0.24840   0.37120   Biso      1.000     O          -0.533799           
         O22       1.0000    0.84140   0.00320   0.19960   Biso      1.000     O          -0.380021           
         O23       1.0000    0.00320   0.84140   0.69960   Biso      1.000     O          -0.380021           
         O24       1.0000    0.84530   0.45030   0.19780   Biso      1.000     O          -0.390293           
         O25       1.0000    0.90460   0.75160   0.62880   Biso      1.000     O          -0.533802           
         O26       1.0000    0.06850   0.22630   0.61380   Biso      1.000     O          -0.52718  
         O27       1.0000    0.20070   0.38450   0.46250   Biso      1.000     O          -0.500693           
         O28       1.0000    0.95940   0.36120   0.71600   Biso      1.000     O          -0.415257           
         O29       1.0000    0.10530   0.53070   0.55230   Biso      1.000     O          -0.398279           
         O30       1.0000    0.78890   0.65210   0.15860   Biso      1.000     O          -0.501973           
         O31       1.0000    0.84230   0.67270   0.93390   Biso      1.000     O          -0.518513           
         O32       1.0000    0.11320   0.93700   0.41710   Biso      1.000     O          -0.388342           
         O33       1.0000    0.89420   0.47460   0.95640   Biso      1.000     O          -0.396352           
         O34       1.0000    0.04580   0.18760   0.99070   Biso      1.000     O          -0.467544           
         O35       1.0000    0.24840   0.09540   0.87120   Biso      1.000     O          -0.533801           
         O36       1.0000    0.93700   0.11320   0.91710   Biso      1.000     O          -0.388341           
         O37       1.0000    0.15860   0.99680   0.80040   Biso      1.000     O          -0.38002  
         O38       1.0000    0.77370   0.93150   0.88620   Biso      1.000     O          -0.52718  
         O39       1.0000    0.61550   0.79930   0.03750   Biso      1.000     O          -0.500692           
         O40       1.0000    0.63880   0.04060   0.78400   Biso      1.000     O          -0.415255           
         O41       1.0000    0.46930   0.89470   0.94770   Biso      1.000     O          -0.398278           
         O42       1.0000    0.34790   0.21110   0.34140   Biso      1.000     O          -0.501974           
         O43       1.0000    0.32730   0.15770   0.56610   Biso      1.000     O          -0.518511           
         O44       1.0000    0.54970   0.15470   0.30220   Biso      1.000     O          -0.390292           
         O45       1.0000    0.52540   0.10580   0.54360   Biso      1.000     O          -0.396353           
         O46       1.0000    0.81240   0.95420   0.50930   Biso      1.000     O          -0.467546           
         O47       1.0000    0.88680   0.06300   0.58290   Biso      1.000     O          -0.388342           
         O48       1.0000    0.99680   0.15860   0.30040   Biso      1.000     O          -0.38002 