
##########################################################################
#               Crystallographic Information Format file
#               Produced by PyCifRW module
#
#  This is a CIF file.  CIF has been adopted by the International
#  Union of Crystallography as the standard for data archiving and
#  transmission.
#
#  For information on this file format, follow the CIF links at
#  http://www.iucr.org
##########################################################################

data_image0

_cell_length_a                          8.5879
_cell_length_b                          8.5879
_cell_length_c                          20.8637
_cell_angle_alpha                       100.897
_cell_angle_beta                        100.897
_cell_angle_gamma                       94.6714
_symmetry_space_group_name_H-M          'P 1'
_symmetry_int_tables_number             1
loop_
  _symmetry_equiv_pos_as_xyz
         'x, y, z' 
loop_
  _atom_site_label
  _atom_site_occupancy
  _atom_site_fract_x
  _atom_site_fract_y
  _atom_site_fract_z
  _atom_site_thermal_displace_type
  _atom_site_B_iso_or_equiv
  _atom_site_type_symbol
  _atom_site_charge
         C1        1.0000    0.82178   0.53506   0.41984   Biso      1.000     C          0.765538  
         C2        1.0000    0.97546   0.10608   0.40902   Biso      1.000     C          -0.620653           
         C3        1.0000    0.15738   0.87332   0.09968   Biso      1.000     C          0.764901  
         C4        1.0000    0.96856   0.60782   0.40070   Biso      1.000     C          -0.612231           
         C5        1.0000    0.73258   0.48882   0.22908   Biso      1.000     C          0.768138  
         C6        1.0000    0.65529   0.33561   0.24192   Biso      1.000     C          -0.615352           
         C7        1.0000    0.97636   0.19230   0.59968   Biso      1.000     C          0.767439  
         C8        1.0000    0.89392   0.02454   0.59098   Biso      1.000     C          -0.620653           
         C9        1.0000    0.46494   0.17822   0.58016   Biso      1.000     C          0.765539  
         C10       1.0000    0.39218   0.03144   0.59930   Biso      1.000     C          -0.612231           
         C11       1.0000    0.51118   0.26742   0.77092   Biso      1.000     C          0.768138  
         C12       1.0000    0.66439   0.34471   0.75808   Biso      1.000     C          -0.615342           
         C13       1.0000    0.12668   0.84262   0.90032   Biso      1.000     C          0.764899  
         C14       1.0000    0.05294   0.68356   0.90902   Biso      1.000     C          -0.615834           
         C15       1.0000    0.63478   0.84806   0.91984   Biso      1.000     C          0.770502  
         C16       1.0000    0.54288   0.68214   0.90070   Biso      1.000     C          -0.618035           
         C17       1.0000    0.80770   0.02364   0.40032   Biso      1.000     C          0.76744   
         C18       1.0000    0.49026   0.74650   0.72908   Biso      1.000     C          0.767821  
         C19       1.0000    0.65631   0.83663   0.74192   Biso      1.000     C          -0.615638           
         C20       1.0000    0.16337   0.34369   0.25808   Biso      1.000     C          -0.615638           
         C21       1.0000    0.25350   0.50974   0.27092   Biso      1.000     C          0.76782   
         C22       1.0000    0.31786   0.45712   0.09930   Biso      1.000     C          -0.618039           
         C23       1.0000    0.15194   0.36522   0.08016   Biso      1.000     C          0.770514  
         C24       1.0000    0.31644   0.94706   0.09098   Biso      1.000     C          -0.615835           
         H1        1.0000    0.44500   0.93920   0.58340   Biso      1.000     H          0.176677  
         H2        1.0000    0.19590   0.27450   0.22120   Biso      1.000     H          0.189404  
         H3        1.0000    0.78860   0.02980   0.60240   Biso      1.000     H          0.188919  
         H4        1.0000    0.95870   0.96690   0.62040   Biso      1.000     H          0.176505  
         H5        1.0000    0.72470   0.30330   0.27880   Biso      1.000     H          0.190292  
         H6        1.0000    0.63930   0.25110   0.20160   Biso      1.000     H          0.177645  
         H7        1.0000    0.55190   0.35330   0.25360   Biso      1.000     H          0.181942  
         H8        1.0000    0.98930   0.72210   0.42100   Biso      1.000     H          0.189803  
         H9        1.0000    0.06080   0.55500   0.41660   Biso      1.000     H          0.176677  
         H10       1.0000    0.18770   0.29950   0.29840   Biso      1.000     H          0.178576  
         H11       1.0000    0.03180   0.11900   0.45560   Biso      1.000     H          0.188267  
         H12       1.0000    0.97020   0.21140   0.39760   Biso      1.000     H          0.188918  
         H13       1.0000    0.03310   0.04130   0.37960   Biso      1.000     H          0.176504  
         H14       1.0000    0.95060   0.59340   0.35200   Biso      1.000     H          0.183692  
         H15       1.0000    0.27790   0.01070   0.57900   Biso      1.000     H          0.189804  
         H16       1.0000    0.04830   0.34970   0.24640   Biso      1.000     H          0.181732  
         H17       1.0000    0.39420   0.38840   0.08340   Biso      1.000     H          0.178351  
         H18       1.0000    0.40660   0.04940   0.64800   Biso      1.000     H          0.183692  
         H19       1.0000    0.64670   0.44810   0.74640   Biso      1.000     H          0.181943  
         H20       1.0000    0.74890   0.36070   0.79840   Biso      1.000     H          0.177636  
         H21       1.0000    0.69670   0.27530   0.72120   Biso      1.000     H          0.190291  
         H22       1.0000    0.08830   0.59650   0.87960   Biso      1.000     H          0.175413  
         H23       1.0000    0.93620   0.67740   0.89760   Biso      1.000     H          0.187036  
         H24       1.0000    0.08660   0.67380   0.95560   Biso      1.000     H          0.187149  
         H25       1.0000    0.44890   0.68170   0.92100   Biso      1.000     H          0.191062  
         H26       1.0000    0.61160   0.60580   0.91660   Biso      1.000     H          0.178352  
         H27       1.0000    0.88100   0.96820   0.54440   Biso      1.000     H          0.188268  
         H28       1.0000    0.65030   0.95170   0.75360   Biso      1.000     H          0.181732  
         H29       1.0000    0.70050   0.81230   0.70160   Biso      1.000     H          0.178576  
         H30       1.0000    0.72550   0.80410   0.77880   Biso      1.000     H          0.189403  
         H31       1.0000    0.40350   0.91170   0.12040   Biso      1.000     H          0.175414  
         H32       1.0000    0.32260   0.06380   0.10240   Biso      1.000     H          0.187036  
         H33       1.0000    0.32620   0.91340   0.04440   Biso      1.000     H          0.187149  
         H34       1.0000    0.31830   0.55110   0.07900   Biso      1.000     H          0.191062  
         H35       1.0000    0.34860   0.49140   0.14800   Biso      1.000     H          0.184667  
         H36       1.0000    0.50860   0.65140   0.85200   Biso      1.000     H          0.184666  
         Mg1       1.0000    0.58313   0.71035   0.33266   Biso      1.000     Mg          1.428642  
         Mg2       1.0000    0.95273   0.04727   0.00000   Biso      1.000     Mg          1.423201  
         Mg3       1.0000    0.70273   0.29727   0.50000   Biso      1.000     Mg          1.422263  
         Mg4       1.0000    0.00047   0.62769   0.16734   Biso      1.000     Mg          1.428907  
         Mg5       1.0000    0.37231   0.99953   0.83266   Biso      1.000     Mg          1.428906  
         Mg6       1.0000    0.28965   0.41687   0.66734   Biso      1.000     Mg          1.428643  
         O1        1.0000    0.13128   0.23410   0.03932   Biso      1.000     O          -0.690106           
         O2        1.0000    0.04235   0.42493   0.10590   Biso      1.000     O          -0.72581  
         O3        1.0000    0.03088   0.90336   0.06466   Biso      1.000     O          -0.724496           
         O4        1.0000    0.15933   0.78377   0.14080   Biso      1.000     O          -0.689408           
         O5        1.0000    0.38727   0.81257   0.75764   Biso      1.000     O          -0.727721           
         O6        1.0000    0.46378   0.61088   0.69172   Biso      1.000     O          -0.689683           
         O7        1.0000    0.76590   0.86872   0.96068   Biso      1.000     O          -0.690098           
         O8        1.0000    0.57507   0.95765   0.89410   Biso      1.000     O          -0.725808           
         O9        1.0000    0.09664   0.96912   0.93534   Biso      1.000     O          -0.724495           
         O10       1.0000    0.21623   0.84067   0.85920   Biso      1.000     O          -0.689408           
         O11       1.0000    0.37963   0.30493   0.74236   Biso      1.000     O          -0.727791           
         O12       1.0000    0.55522   0.15804   0.53932   Biso      1.000     O          -0.689382           
         O13       1.0000    0.38912   0.53622   0.30828   Biso      1.000     O          -0.689683           
         O14       1.0000    0.43097   0.31355   0.60590   Biso      1.000     O          -0.723105           
         O15       1.0000    0.91130   0.28378   0.56466   Biso      1.000     O          -0.723497           
         O16       1.0000    0.10703   0.23147   0.64080   Biso      1.000     O          -0.692374           
         O17       1.0000    0.69507   0.62037   0.25764   Biso      1.000     O          -0.727791           
         O18       1.0000    0.83084   0.47794   0.19172   Biso      1.000     O          -0.690643           
         O19       1.0000    0.84196   0.44478   0.46068   Biso      1.000     O          -0.689382           
         O20       1.0000    0.68645   0.56903   0.39410   Biso      1.000     O          -0.723105           
         O21       1.0000    0.71622   0.08870   0.43534   Biso      1.000     O          -0.723497           
         O22       1.0000    0.76853   0.89297   0.35920   Biso      1.000     O          -0.692375           
         O23       1.0000    0.52206   0.16916   0.80828   Biso      1.000     O          -0.690642           
         O24       1.0000    0.18743   0.61273   0.24236   Biso      1.000     O          -0.727721 