
##########################################################################
#               Crystallographic Information Format file
#               Produced by PyCifRW module
#
#  This is a CIF file.  CIF has been adopted by the International
#  Union of Crystallography as the standard for data archiving and
#  transmission.
#
#  For information on this file format, follow the CIF links at
#  http://www.iucr.org
##########################################################################

data_image0

_cell_length_a                          10.1964
_cell_length_b                          17.686
_cell_length_c                          17.686
_cell_angle_alpha                       120
_cell_angle_beta                        90
_cell_angle_gamma                       90
_symmetry_space_group_name_H-M          'P 1'
_symmetry_int_tables_number             1
loop_
  _symmetry_equiv_pos_as_xyz
         'x, y, z' 
loop_
  _atom_site_label
  _atom_site_occupancy
  _atom_site_fract_x
  _atom_site_fract_y
  _atom_site_fract_z
  _atom_site_thermal_displace_type
  _atom_site_B_iso_or_equiv
  _atom_site_type_symbol
  _atom_site_charge
         C1        1.0000    0.09690   0.15870   0.44040   Biso      1.000     C          0.130115  
         C2        1.0000    0.68993   0.45640   0.51130   Biso      1.000     C          0.570611  
         C3        1.0000    0.46663   0.58430   0.64920   Biso      1.000     C          -0.121745           
         C4        1.0000    0.28703   0.49520   0.77740   Biso      1.000     C          0.06254   
         C5        1.0000    0.31563   0.52000   0.71540   Biso      1.000     C          -0.209977           
         C6        1.0000    0.43023   0.55960   0.71830   Biso      1.000     C          0.130174  
         C7        1.0000    0.51393   0.57820   0.78700   Biso      1.000     C          -0.22754899999999997          
         C8        1.0000    0.48003   0.55160   0.84660   Biso      1.000     C          0.066607  
         C9        1.0000    0.84937   0.50620   0.85540   Biso      1.000     C          -0.496253           
         C10       1.0000    0.02327   0.48870   0.94510   Biso      1.000     C          0.570146  
         C11       1.0000    0.89907   0.44780   0.89010   Biso      1.000     C          0.037006  
         C12       1.0000    0.79997   0.35080   0.93510   Biso      1.000     C          -0.12078900000000001          
         C13       1.0000    0.51603   0.34920   0.49380   Biso      1.000     C          -0.4961   
         C14       1.0000    0.62037   0.22260   0.71780   Biso      1.000     C          0.06146   
         C15       1.0000    0.76357   0.28170   0.84130   Biso      1.000     C          0.129663  
         C16       1.0000    0.84727   0.21300   0.79120   Biso      1.000     C          -0.226919           
         C17       1.0000    0.81337   0.15340   0.70500   Biso      1.000     C          0.066315  
         C18       1.0000    0.18270   0.14460   0.65080   Biso      1.000     C          -0.497838           
         C19       1.0000    0.35660   0.05490   0.54360   Biso      1.000     C          0.570338  
         C20       1.0000    0.23240   0.10990   0.55770   Biso      1.000     C          0.034622  
         C21       1.0000    0.13330   0.06490   0.41570   Biso      1.000     C          -0.121851           
         C22       1.0000    0.95370   0.28220   0.50480   Biso      1.000     C          0.061586  
         C23       1.0000    0.98230   0.19540   0.48000   Biso      1.000     C          -0.20971599999999999          
         C24       1.0000    0.18060   0.20880   0.42180   Biso      1.000     C          -0.229106           
         C25       1.0000    0.14670   0.29500   0.44840   Biso      1.000     C          0.067027  
         C26       1.0000    0.64897   0.28460   0.80460   Biso      1.000     C          -0.209965           
         C27       1.0000    0.64670   0.70500   0.55160   Biso      1.000     C          0.067027  
         C28       1.0000    0.56573   0.44230   0.55220   Biso      1.000     C          0.034519  
         C29       1.0000    0.59690   0.84130   0.55960   Biso      1.000     C          0.130115  
         C30       1.0000    0.01603   0.65080   0.50620   Biso      1.000     C          -0.4961   
         C31       1.0000    0.18993   0.54360   0.48870   Biso      1.000     C          0.570611  
         C32       1.0000    0.06573   0.55770   0.44780   Biso      1.000     C          0.034519  
         C33       1.0000    0.96663   0.41570   0.35080   Biso      1.000     C          -0.121745           
         C34       1.0000    0.78703   0.50480   0.22260   Biso      1.000     C          0.062541  
         C35       1.0000    0.81563   0.48000   0.28460   Biso      1.000     C          -0.209977           
         C36       1.0000    0.93023   0.44040   0.28170   Biso      1.000     C          0.130174  
         C37       1.0000    0.01393   0.42180   0.21300   Biso      1.000     C          -0.22754899999999997          
         C38       1.0000    0.98003   0.44840   0.15340   Biso      1.000     C          0.066607  
         C39       1.0000    0.68060   0.79120   0.57820   Biso      1.000     C          -0.229106           
         C40       1.0000    0.52327   0.51130   0.05490   Biso      1.000     C          0.570146  
         C41       1.0000    0.39907   0.55220   0.10990   Biso      1.000     C          0.037006  
         C42       1.0000    0.34937   0.49380   0.14460   Biso      1.000     C          -0.496253           
         C43       1.0000    0.12037   0.77740   0.28220   Biso      1.000     C          0.06146   
         C44       1.0000    0.48230   0.80460   0.52000   Biso      1.000     C          -0.20971599999999999          
         C45       1.0000    0.29997   0.64920   0.06490   Biso      1.000     C          -0.12078900000000001          
         C46       1.0000    0.63330   0.93510   0.58430   Biso      1.000     C          -0.121851           
         C47       1.0000    0.73240   0.89010   0.44230   Biso      1.000     C          0.034622  
         C48       1.0000    0.85660   0.94510   0.45640   Biso      1.000     C          0.570338  
         C49       1.0000    0.45370   0.71780   0.49520   Biso      1.000     C          0.061586  
         C50       1.0000    0.31337   0.84660   0.29500   Biso      1.000     C          0.066315  
         C51       1.0000    0.34727   0.78700   0.20880   Biso      1.000     C          -0.226919           
         C52       1.0000    0.26357   0.71830   0.15870   Biso      1.000     C          0.129663  
         C53       1.0000    0.14897   0.71540   0.19540   Biso      1.000     C          -0.20996599999999999          
         C54       1.0000    0.68270   0.85540   0.34920   Biso      1.000     C          -0.497838           
         H1        1.0000    0.70783   0.53240   0.22600   Biso      1.000     H          0.096884  
         H2        1.0000    0.88353   0.51960   0.44520   Biso      1.000     H          0.263642  
         H3        1.0000    0.97623   0.65550   0.55760   Biso      1.000     H          0.140948  
         H4        1.0000    0.95243   0.66470   0.47500   Biso      1.000     H          0.15684   
         H5        1.0000    0.08753   0.54960   0.39030   Biso      1.000     H          0.07748   
         H6        1.0000    0.05373   0.39010   0.33900   Biso      1.000     H          0.111874  
         H7        1.0000    0.90503   0.37260   0.34830   Biso      1.000     H          0.125092  
         H8        1.0000    0.75503   0.49090   0.32820   Biso      1.000     H          0.113407  
         H9        1.0000    0.08823   0.69090   0.52290   Biso      1.000     H          0.160554  
         H10       1.0000    0.03793   0.43600   0.10800   Biso      1.000     H          0.080788  
         H11       1.0000    0.20783   0.46760   0.77400   Biso      1.000     H          0.096884  
         H12       1.0000    0.25503   0.50910   0.67180   Biso      1.000     H          0.113407  
         H13       1.0000    0.59193   0.60810   0.79340   Biso      1.000     H          0.124481  
         H14       1.0000    0.53793   0.56400   0.89200   Biso      1.000     H          0.080788  
         H15       1.0000    0.71687   0.44520   0.92560   Biso      1.000     H          0.264415  
         H16       1.0000    0.80957   0.55760   0.90210   Biso      1.000     H          0.140897  
         H17       1.0000    0.09193   0.39190   0.20660   Biso      1.000     H          0.124481  
         H18       1.0000    0.78577   0.47500   0.81030   Biso      1.000     H          0.156822  
         H19       1.0000    0.92087   0.39030   0.84070   Biso      1.000     H          0.07697799999999999           
         H20       1.0000    0.88707   0.33900   0.94890   Biso      1.000     H          0.11162000000000001           
         H21       1.0000    0.73837   0.34830   0.97570   Biso      1.000     H          0.12431199999999999           
         H22       1.0000    0.54117   0.22600   0.69360   Biso      1.000     H          0.097254  
         H23       1.0000    0.40503   0.62740   0.65170   Biso      1.000     H          0.125092  
         H24       1.0000    0.58837   0.32820   0.83730   Biso      1.000     H          0.11373499999999999           
         H25       1.0000    0.87127   0.10800   0.67200   Biso      1.000     H          0.080222  
         H26       1.0000    0.05020   0.07440   0.51960   Biso      1.000     H          0.26429   
         H27       1.0000    0.14290   0.09790   0.65550   Biso      1.000     H          0.140745  
         H28       1.0000    0.25490   0.16800   0.69090   Biso      1.000     H          0.161128  
         H29       1.0000    0.11910   0.18970   0.66470   Biso      1.000     H          0.15726600000000002           
         H30       1.0000    0.25420   0.15930   0.54960   Biso      1.000     H          0.077764  
         H31       1.0000    0.22040   0.05110   0.39010   Biso      1.000     H          0.112132  
         H32       1.0000    0.07170   0.02430   0.37260   Biso      1.000     H          0.125161  
         H33       1.0000    0.87450   0.30640   0.53240   Biso      1.000     H          0.096777  
         H34       1.0000    0.92170   0.16270   0.49090   Biso      1.000     H          0.113052  
         H35       1.0000    0.25860   0.18530   0.39190   Biso      1.000     H          0.125305  
         H36       1.0000    0.20460   0.32800   0.43600   Biso      1.000     H          0.08037000000000001           
         H37       1.0000    0.92527   0.20660   0.81470   Biso      1.000     H          0.124491  
         H38       1.0000    0.55373   0.60990   0.66100   Biso      1.000     H          0.111874  
         H39       1.0000    0.92157   0.52290   0.83200   Biso      1.000     H          0.159878  
         H40       1.0000    0.45243   0.33530   0.52500   Biso      1.000     H          0.156839  
         H41       1.0000    0.21687   0.55480   0.07440   Biso      1.000     H          0.264415  
         H42       1.0000    0.30957   0.44240   0.09790   Biso      1.000     H          0.140897  
         H43       1.0000    0.42157   0.47710   0.16800   Biso      1.000     H          0.159878  
         H44       1.0000    0.28577   0.52500   0.18970   Biso      1.000     H          0.156822  
         H45       1.0000    0.58753   0.45040   0.60970   Biso      1.000     H          0.07748   
         H46       1.0000    0.38707   0.66100   0.05110   Biso      1.000     H          0.11162000000000001           
         H47       1.0000    0.23837   0.65170   0.02430   Biso      1.000     H          0.12431199999999999           
         H48       1.0000    0.04117   0.77400   0.30640   Biso      1.000     H          0.097254  
         H49       1.0000    0.08837   0.67180   0.16270   Biso      1.000     H          0.11373499999999999           
         H50       1.0000    0.42527   0.79340   0.18530   Biso      1.000     H          0.124491  
         H51       1.0000    0.37127   0.89200   0.32800   Biso      1.000     H          0.080222  
         H52       1.0000    0.55020   0.92560   0.48040   Biso      1.000     H          0.26429   
         H53       1.0000    0.42087   0.60970   0.15930   Biso      1.000     H          0.07697799999999999           
         H54       1.0000    0.75490   0.83200   0.30910   Biso      1.000     H          0.161128  
         H55       1.0000    0.64290   0.90210   0.34450   Biso      1.000     H          0.140745  
         H56       1.0000    0.58823   0.30910   0.47710   Biso      1.000     H          0.160554  
         H57       1.0000    0.38353   0.48040   0.55480   Biso      1.000     H          0.263642  
         H58       1.0000    0.70460   0.67200   0.56400   Biso      1.000     H          0.08037000000000001           
         H59       1.0000    0.75860   0.81470   0.60810   Biso      1.000     H          0.125305  
         H60       1.0000    0.42170   0.83730   0.50910   Biso      1.000     H          0.113052  
         H61       1.0000    0.47623   0.34450   0.44240   Biso      1.000     H          0.140948  
         H62       1.0000    0.61910   0.81030   0.33530   Biso      1.000     H          0.15726600000000002           
         H63       1.0000    0.57170   0.97570   0.62740   Biso      1.000     H          0.125161  
         H64       1.0000    0.72040   0.94890   0.60990   Biso      1.000     H          0.112132  
         H65       1.0000    0.75420   0.84070   0.45040   Biso      1.000     H          0.077764  
         H66       1.0000    0.37450   0.69360   0.46760   Biso      1.000     H          0.096777  
         N1        1.0000    0.70597   0.15780   0.66850   Biso      1.000     N          -0.176782           
         N2        1.0000    0.79667   0.43780   0.94400   Biso      1.000     N          -0.308143           
         N3        1.0000    0.03930   0.33150   0.48930   Biso      1.000     N          -0.175427           
         N4        1.0000    0.13000   0.05600   0.49380   Biso      1.000     N          -0.307147           
         N5        1.0000    0.63000   0.94400   0.50620   Biso      1.000     N          -0.307147           
         N6        1.0000    0.96333   0.49380   0.43780   Biso      1.000     N          -0.307253           
         N7        1.0000    0.29667   0.56220   0.05600   Biso      1.000     N          -0.30814400000000003          
         N8        1.0000    0.20597   0.84220   0.33150   Biso      1.000     N          -0.176782           
         N9        1.0000    0.46333   0.50620   0.56220   Biso      1.000     N          -0.307253           
         N10       1.0000    0.87263   0.48930   0.15780   Biso      1.000     N          -0.177307           
         N11       1.0000    0.53930   0.66850   0.51070   Biso      1.000     N          -0.175427           
         N12       1.0000    0.37263   0.51070   0.84220   Biso      1.000     N          -0.177307           
         O1        1.0000    0.95600   0.90170   0.42010   Biso      1.000     O          -0.5374140000000001           
         O2        1.0000    0.51677   0.47660   0.97370   Biso      1.000     O          -0.526231           
         O3        1.0000    0.85010   0.02630   0.50290   Biso      1.000     O          -0.5257729999999999           
         O4        1.0000    0.78933   0.42010   0.51840   Biso      1.000     O          -0.537141           
         O5        1.0000    0.12267   0.48160   0.90170   Biso      1.000     O          -0.5374869999999999           
         O6        1.0000    0.68343   0.50290   0.47660   Biso      1.000     O          -0.525996           
         O7        1.0000    0.62267   0.51840   0.09830   Biso      1.000     O          -0.5374869999999999           
         O8        1.0000    0.01677   0.52340   0.02630   Biso      1.000     O          -0.526231           
         O9        1.0000    0.28933   0.57990   0.48160   Biso      1.000     O          -0.537141           
         O10       1.0000    0.35010   0.97370   0.49710   Biso      1.000     O          -0.5257729999999999           
         O11       1.0000    0.18343   0.49710   0.52340   Biso      1.000     O          -0.525996           
         O12       1.0000    0.45600   0.09830   0.57990   Biso      1.000     O          -0.5374140000000001           
         Zn1       1.0000    0.81954   0.53331   0.07448   Biso      1.000     Zn          0.287094  
         Zn2       1.0000    0.15288   0.92552   0.45883   Biso      1.000     Zn          0.287047  
         Zn3       1.0000    0.48621   0.54117   0.46669   Biso      1.000     Zn          0.286434  
         Zn4       1.0000    0.31954   0.46669   0.92552   Biso      1.000     Zn          0.287096  
         Zn5       1.0000    0.65288   0.07448   0.54117   Biso      1.000     Zn          0.287047  
         Zn6       1.0000    0.98621   0.45883   0.53331   Biso      1.000     Zn          0.286433 