
##########################################################################
#               Crystallographic Information Format file
#               Produced by PyCifRW module
#
#  This is a CIF file.  CIF has been adopted by the International
#  Union of Crystallography as the standard for data archiving and
#  transmission.
#
#  For information on this file format, follow the CIF links at
#  http://www.iucr.org
##########################################################################

data_image0

_cell_length_a                          10.1716
_cell_length_b                          17.5911
_cell_length_c                          17.5911
_cell_angle_alpha                       120
_cell_angle_beta                        90
_cell_angle_gamma                       90
_symmetry_space_group_name_H-M          'P 1'
_symmetry_int_tables_number             1
loop_
  _symmetry_equiv_pos_as_xyz
         'x, y, z' 
loop_
  _atom_site_label
  _atom_site_occupancy
  _atom_site_fract_x
  _atom_site_fract_y
  _atom_site_fract_z
  _atom_site_thermal_displace_type
  _atom_site_B_iso_or_equiv
  _atom_site_type_symbol
  _atom_site_charge
         C1        1.0000    0.81380   0.56960   0.72250   Biso      1.000     C          0.115444  
         C2        1.0000    0.40273   0.48410   0.94410   Biso      1.000     C          0.559308  
         C3        1.0000    0.18483   0.34810   0.93850   Biso      1.000     C          -0.12184500000000001          
         C4        1.0000    0.20063   0.15310   0.70740   Biso      1.000     C          0.033422  
         C5        1.0000    0.23313   0.21080   0.79310   Biso      1.000     C          -0.218763           
         C6        1.0000    0.14713   0.27750   0.84710   Biso      1.000     C          0.11576700000000001           
         C7        1.0000    0.02723   0.27970   0.81060   Biso      1.000     C          -0.22440100000000002          
         C8        1.0000    0.99893   0.21820   0.72190   Biso      1.000     C          0.063939  
         C9        1.0000    0.56137   0.14540   0.64830   Biso      1.000     C          -0.49341899999999994          
         C10       1.0000    0.73607   0.05590   0.54000   Biso      1.000     C          0.559106  
         C11       1.0000    0.61147   0.11170   0.55630   Biso      1.000     C          0.04768   
         C12       1.0000    0.51817   0.06150   0.40960   Biso      1.000     C          -0.123964           
         C13       1.0000    0.22803   0.50290   0.85460   Biso      1.000     C          -0.49349899999999997          
         C14       1.0000    0.53397   0.29260   0.44570   Biso      1.000     C          0.033964  
         C15       1.0000    0.48047   0.15290   0.43040   Biso      1.000     C          0.115994  
         C16       1.0000    0.36057   0.18940   0.46910   Biso      1.000     C          -0.225206           
         C17       1.0000    0.33227   0.27810   0.49630   Biso      1.000     C          0.06525399999999999           
         C18       1.0000    0.89470   0.35170   0.49710   Biso      1.000     C          -0.49207399999999996          
         C19       1.0000    0.06940   0.46000   0.51590   Biso      1.000     C          0.558554  
         C20       1.0000    0.94480   0.44370   0.55540   Biso      1.000     C          0.046477  
         C21       1.0000    0.85150   0.59040   0.65190   Biso      1.000     C          -0.12359  
         C22       1.0000    0.86730   0.55430   0.84690   Biso      1.000     C          0.033466  
         C23       1.0000    0.89980   0.58230   0.78920   Biso      1.000     C          -0.21772600000000003          
         C24       1.0000    0.69390   0.53090   0.72030   Biso      1.000     C          -0.224987           
         C25       1.0000    0.66560   0.50370   0.78180   Biso      1.000     C          0.065105  
         C26       1.0000    0.56647   0.20690   0.41770   Biso      1.000     C          -0.21851700000000002          
         C27       1.0000    0.16560   0.49630   0.21820   Biso      1.000     C          0.065105  
         C28       1.0000    0.27813   0.44460   0.88830   Biso      1.000     C          0.048657  
         C29       1.0000    0.31380   0.43040   0.27750   Biso      1.000     C          0.115444  
         C30       1.0000    0.72803   0.49710   0.14540   Biso      1.000     C          -0.49349899999999997          
         C31       1.0000    0.90273   0.51590   0.05590   Biso      1.000     C          0.559308  
         C32       1.0000    0.77813   0.55540   0.11170   Biso      1.000     C          0.048657  
         C33       1.0000    0.68483   0.65190   0.06150   Biso      1.000     C          -0.12184500000000001          
         C34       1.0000    0.70063   0.84690   0.29260   Biso      1.000     C          0.033422  
         C35       1.0000    0.73313   0.78920   0.20690   Biso      1.000     C          -0.218763           
         C36       1.0000    0.64713   0.72250   0.15290   Biso      1.000     C          0.11576700000000001           
         C37       1.0000    0.52723   0.72030   0.18940   Biso      1.000     C          -0.22440100000000002          
         C38       1.0000    0.49893   0.78180   0.27810   Biso      1.000     C          0.063939  
         C39       1.0000    0.19390   0.46910   0.27970   Biso      1.000     C          -0.224987           
         C40       1.0000    0.23607   0.94410   0.46000   Biso      1.000     C          0.559106  
         C41       1.0000    0.11147   0.88830   0.44370   Biso      1.000     C          0.04768   
         C42       1.0000    0.06137   0.85460   0.35170   Biso      1.000     C          -0.49341899999999994          
         C43       1.0000    0.03397   0.70740   0.55430   Biso      1.000     C          0.033963  
         C44       1.0000    0.39980   0.41770   0.21080   Biso      1.000     C          -0.217732           
         C45       1.0000    0.01817   0.93850   0.59040   Biso      1.000     C          -0.123964           
         C46       1.0000    0.35150   0.40960   0.34810   Biso      1.000     C          -0.12359  
         C47       1.0000    0.44480   0.55630   0.44460   Biso      1.000     C          0.046477  
         C48       1.0000    0.56940   0.54000   0.48410   Biso      1.000     C          0.558554  
         C49       1.0000    0.36730   0.44570   0.15310   Biso      1.000     C          0.033471  
         C50       1.0000    0.83227   0.72190   0.50370   Biso      1.000     C          0.06525399999999999           
         C51       1.0000    0.86057   0.81060   0.53090   Biso      1.000     C          -0.22520700000000002          
         C52       1.0000    0.98047   0.84710   0.56960   Biso      1.000     C          0.115995  
         C53       1.0000    0.06647   0.79310   0.58230   Biso      1.000     C          -0.218518           
         C54       1.0000    0.39470   0.64830   0.50290   Biso      1.000     C          -0.49207399999999996          
         H1        1.0000    0.76103   0.89010   0.32760   Biso      1.000     H          0.081822  
         H2        1.0000    0.59883   0.55840   0.07290   Biso      1.000     H          0.259973  
         H3        1.0000    0.74063   0.43670   0.10140   Biso      1.000     H          0.146222  
         H4        1.0000    0.63613   0.50800   0.15880   Biso      1.000     H          0.160727  
         H5        1.0000    0.79873   0.61340   0.16150   Biso      1.000     H          0.078691  
         H6        1.0000    0.77283   0.66290   0.04810   Biso      1.000     H          0.11177999999999999           
         H7        1.0000    0.62473   0.65300   0.01920   Biso      1.000     H          0.123993  
         H8        1.0000    0.81323   0.79480   0.18470   Biso      1.000     H          0.124423  
         H9        1.0000    0.77543   0.50930   0.19750   Biso      1.000     H          0.161932  
         H10       1.0000    0.41853   0.77890   0.30170   Biso      1.000     H          0.09815800000000001           
         H11       1.0000    0.26103   0.10990   0.67240   Biso      1.000     H          0.081822  
         H12       1.0000    0.31323   0.20520   0.81530   Biso      1.000     H          0.124423  
         H13       1.0000    0.96503   0.32180   0.84470   Biso      1.000     H          0.10798699999999999           
         H14       1.0000    0.91853   0.22110   0.69830   Biso      1.000     H          0.09815800000000001           
         H15       1.0000    0.43217   0.07290   0.51450   Biso      1.000     H          0.260374  
         H16       1.0000    0.57397   0.10140   0.66470   Biso      1.000     H          0.14691500000000002           
         H17       1.0000    0.46503   0.67820   0.15530   Biso      1.000     H          0.10798699999999999           
         H18       1.0000    0.46947   0.15880   0.65080   Biso      1.000     H          0.160409  
         H19       1.0000    0.63207   0.16150   0.54810   Biso      1.000     H          0.07888400000000001           
         H20       1.0000    0.60617   0.04810   0.38520   Biso      1.000     H          0.112489  
         H21       1.0000    0.45807   0.01920   0.36620   Biso      1.000     H          0.124615  
         H22       1.0000    0.59437   0.32760   0.43750   Biso      1.000     H          0.082312  
         H23       1.0000    0.12473   0.34700   0.98080   Biso      1.000     H          0.123993  
         H24       1.0000    0.64657   0.18470   0.38990   Biso      1.000     H          0.124351  
         H25       1.0000    0.25187   0.30170   0.52280   Biso      1.000     H          0.098183  
         H26       1.0000    0.76550   0.48550   0.55840   Biso      1.000     H          0.25956999999999997           
         H27       1.0000    0.90730   0.33530   0.43670   Biso      1.000     H          0.147063  
         H28       1.0000    0.94210   0.31180   0.50930   Biso      1.000     H          0.16122899999999998           
         H29       1.0000    0.80280   0.34920   0.50800   Biso      1.000     H          0.159684  
         H30       1.0000    0.96540   0.45190   0.61340   Biso      1.000     H          0.07984   
         H31       1.0000    0.93950   0.61480   0.66290   Biso      1.000     H          0.11202100000000001           
         H32       1.0000    0.79140   0.63380   0.65300   Biso      1.000     H          0.124829  
         H33       1.0000    0.92770   0.56250   0.89010   Biso      1.000     H          0.081593  
         H34       1.0000    0.97990   0.61010   0.79480   Biso      1.000     H          0.124259  
         H35       1.0000    0.63170   0.52290   0.67820   Biso      1.000     H          0.108422  
         H36       1.0000    0.58520   0.47720   0.77890   Biso      1.000     H          0.09766699999999999           
         H37       1.0000    0.29837   0.15530   0.47710   Biso      1.000     H          0.10806700000000001           
         H38       1.0000    0.27283   0.33710   0.95190   Biso      1.000     H          0.11178099999999999           
         H39       1.0000    0.60877   0.19750   0.68820   Biso      1.000     H          0.16178299999999998           
         H40       1.0000    0.13613   0.49200   0.84120   Biso      1.000     H          0.160727  
         H41       1.0000    0.93217   0.92710   0.48550   Biso      1.000     H          0.260374  
         H42       1.0000    0.07397   0.89860   0.33530   Biso      1.000     H          0.14691500000000002           
         H43       1.0000    0.10877   0.80250   0.31180   Biso      1.000     H          0.16178299999999998           
         H44       1.0000    0.96947   0.84120   0.34920   Biso      1.000     H          0.160409  
         H45       1.0000    0.29873   0.38660   0.83850   Biso      1.000     H          0.078691  
         H46       1.0000    0.10617   0.95190   0.61480   Biso      1.000     H          0.112489  
         H47       1.0000    0.95807   0.98080   0.63380   Biso      1.000     H          0.12461400000000002           
         H48       1.0000    0.09437   0.67240   0.56250   Biso      1.000     H          0.082312  
         H49       1.0000    0.14657   0.81530   0.61010   Biso      1.000     H          0.124351  
         H50       1.0000    0.79837   0.84470   0.52290   Biso      1.000     H          0.10806700000000001           
         H51       1.0000    0.75187   0.69830   0.47720   Biso      1.000     H          0.098183  
         H52       1.0000    0.26550   0.51450   0.44160   Biso      1.000     H          0.25956999999999997           
         H53       1.0000    0.13207   0.83850   0.45190   Biso      1.000     H          0.07888400000000001           
         H54       1.0000    0.44210   0.68820   0.49070   Biso      1.000     H          0.16122899999999998           
         H55       1.0000    0.40730   0.66470   0.56330   Biso      1.000     H          0.147063  
         H56       1.0000    0.27543   0.49070   0.80250   Biso      1.000     H          0.161932  
         H57       1.0000    0.09883   0.44160   0.92710   Biso      1.000     H          0.259973  
         H58       1.0000    0.08520   0.52280   0.22110   Biso      1.000     H          0.09766699999999999           
         H59       1.0000    0.13170   0.47710   0.32180   Biso      1.000     H          0.108422  
         H60       1.0000    0.47990   0.38990   0.20520   Biso      1.000     H          0.124259  
         H61       1.0000    0.24063   0.56330   0.89860   Biso      1.000     H          0.146221  
         H62       1.0000    0.30280   0.65080   0.49200   Biso      1.000     H          0.159684  
         H63       1.0000    0.29140   0.36620   0.34700   Biso      1.000     H          0.124829  
         H64       1.0000    0.43950   0.38520   0.33710   Biso      1.000     H          0.11202100000000001           
         H65       1.0000    0.46540   0.54810   0.38660   Biso      1.000     H          0.07984   
         H66       1.0000    0.42770   0.43750   0.10990   Biso      1.000     H          0.081593  
         N1        1.0000    0.41837   0.32850   0.48480   Biso      1.000     N          -0.198648           
         N2        1.0000    0.51337   0.05500   0.49020   Biso      1.000     N          -0.319859           
         N3        1.0000    0.75170   0.51520   0.84370   Biso      1.000     N          -0.197479           
         N4        1.0000    0.84670   0.50980   0.56480   Biso      1.000     N          -0.318864           
         N5        1.0000    0.34670   0.49020   0.43520   Biso      1.000     N          -0.318864           
         N6        1.0000    0.68003   0.56480   0.05500   Biso      1.000     N          -0.320703           
         N7        1.0000    0.01337   0.94500   0.50980   Biso      1.000     N          -0.319859           
         N8        1.0000    0.91837   0.67150   0.51520   Biso      1.000     N          -0.198648           
         N9        1.0000    0.18003   0.43520   0.94500   Biso      1.000     N          -0.320703           
         N10       1.0000    0.58503   0.84370   0.32850   Biso      1.000     N          -0.196891           
         N11       1.0000    0.25170   0.48480   0.15630   Biso      1.000     N          -0.19748  
         N12       1.0000    0.08503   0.15630   0.67150   Biso      1.000     N          -0.196891           
         O1        1.0000    0.56330   0.49680   0.52220   Biso      1.000     O          -0.502627           
         O2        1.0000    0.33937   0.89800   0.42340   Biso      1.000     O          -0.551204           
         O3        1.0000    0.67270   0.57660   0.47460   Biso      1.000     O          -0.5504979999999999           
         O4        1.0000    0.39663   0.52220   0.02540   Biso      1.000     O          -0.503236           
         O5        1.0000    0.72997   0.97460   0.49680   Biso      1.000     O          -0.50261  
         O6        1.0000    0.50603   0.47460   0.89800   Biso      1.000     O          -0.550697           
         O7        1.0000    0.22997   0.02540   0.50320   Biso      1.000     O          -0.50261  
         O8        1.0000    0.83937   0.10200   0.57660   Biso      1.000     O          -0.551204           
         O9        1.0000    0.89663   0.47780   0.97460   Biso      1.000     O          -0.503236           
         O10       1.0000    0.17270   0.42340   0.52540   Biso      1.000     O          -0.5504979999999999           
         O11       1.0000    0.00603   0.52540   0.10200   Biso      1.000     O          -0.550696           
         O12       1.0000    0.06330   0.50320   0.47780   Biso      1.000     O          -0.502627           
         Zn1       1.0000    0.70242   0.46797   0.92464   Biso      1.000     Zn          0.35302   
         Zn2       1.0000    0.03576   0.07536   0.54333   Biso      1.000     Zn          0.35323499999999997           
         Zn3       1.0000    0.36909   0.45667   0.53203   Biso      1.000     Zn          0.352652  
         Zn4       1.0000    0.20242   0.53203   0.07536   Biso      1.000     Zn          0.35302100000000003           
         Zn5       1.0000    0.53576   0.92464   0.45667   Biso      1.000     Zn          0.353233  
         Zn6       1.0000    0.86909   0.54333   0.46797   Biso      1.000     Zn          0.352654 