
##########################################################################
#               Crystallographic Information Format file
#               Produced by PyCifRW module
#
#  This is a CIF file.  CIF has been adopted by the International
#  Union of Crystallography as the standard for data archiving and
#  transmission.
#
#  For information on this file format, follow the CIF links at
#  http://www.iucr.org
##########################################################################

data_image0

_cell_length_a                          10.1716
_cell_length_b                          17.5911
_cell_length_c                          17.5911
_cell_angle_alpha                       120
_cell_angle_beta                        90
_cell_angle_gamma                       90
_symmetry_space_group_name_H-M          'P 1'
_symmetry_int_tables_number             1
loop_
  _symmetry_equiv_pos_as_xyz
         'x, y, z' 
loop_
  _atom_site_label
  _atom_site_occupancy
  _atom_site_fract_x
  _atom_site_fract_y
  _atom_site_fract_z
  _atom_site_thermal_displace_type
  _atom_site_B_iso_or_equiv
  _atom_site_type_symbol
  _atom_site_charge
         C1        1.0000    0.06700   0.54010   0.48400   Biso      1.000     C          0.598921  
         C2        1.0000    0.22493   0.49710   0.14500   Biso      1.000     C          -0.488922           
         C3        1.0000    0.14473   0.72270   0.15330   Biso      1.000     C          0.19686099999999998           
         C4        1.0000    0.02493   0.72140   0.18840   Biso      1.000     C          -0.186191           
         C5        1.0000    0.40033   0.51600   0.05610   Biso      1.000     C          0.598895  
         C6        1.0000    0.22973   0.78880   0.20670   Biso      1.000     C          -0.218448           
         C7        1.0000    0.27543   0.55470   0.11140   Biso      1.000     C          0.030227999999999998          
         C8        1.0000    0.18203   0.65250   0.06150   Biso      1.000     C          -0.156118           
         C9        1.0000    0.19883   0.84670   0.29270   Biso      1.000     C          0.076576  
         C10       1.0000    0.99593   0.78120   0.27820   Biso      1.000     C          0.064669  
         C11       1.0000    0.55827   0.85500   0.35210   Biso      1.000     C          -0.490309           
         C12       1.0000    0.47807   0.84670   0.56940   Biso      1.000     C          0.195295  
         C13       1.0000    0.35827   0.81160   0.53300   Biso      1.000     C          -0.185911           
         C14       1.0000    0.73367   0.94390   0.45990   Biso      1.000     C          0.598845  
         C15       1.0000    0.56307   0.79330   0.58210   Biso      1.000     C          -0.21781799999999998          
         C16       1.0000    0.60877   0.88860   0.44330   Biso      1.000     C          0.033135000000000005          
         C17       1.0000    0.51537   0.93850   0.59100   Biso      1.000     C          -0.156806           
         C18       1.0000    0.53217   0.70730   0.55400   Biso      1.000     C          0.07633999999999999           
         C19       1.0000    0.32927   0.72180   0.50300   Biso      1.000     C          0.062925  
         C20       1.0000    0.89160   0.64790   0.50290   Biso      1.000     C          -0.489655           
         C21       1.0000    0.81140   0.43060   0.27730   Biso      1.000     C          0.19662000000000002           
         C22       1.0000    0.69160   0.46700   0.27860   Biso      1.000     C          -0.186801           
         C23       1.0000    0.89640   0.41790   0.21120   Biso      1.000     C          -0.216642           
         C24       1.0000    0.94210   0.55670   0.44530   Biso      1.000     C          0.032764  
         C25       1.0000    0.16260   0.50300   0.78120   Biso      1.000     C          0.063577  
         C26       1.0000    0.84870   0.40900   0.34750   Biso      1.000     C          -0.159224           
         C27       1.0000    0.36550   0.55400   0.84670   Biso      1.000     C          0.073664  
         C28       1.0000    0.44210   0.44330   0.55470   Biso      1.000     C          0.032764  
         C29       1.0000    0.72493   0.50290   0.85500   Biso      1.000     C          -0.488922           
         C30       1.0000    0.64473   0.27730   0.84670   Biso      1.000     C          0.19686099999999998           
         C31       1.0000    0.52493   0.27860   0.81160   Biso      1.000     C          -0.186191           
         C32       1.0000    0.90033   0.48400   0.94390   Biso      1.000     C          0.598895  
         C33       1.0000    0.72973   0.21120   0.79330   Biso      1.000     C          -0.218448           
         C34       1.0000    0.77543   0.44530   0.88860   Biso      1.000     C          0.030227999999999998          
         C35       1.0000    0.68203   0.34750   0.93850   Biso      1.000     C          -0.156118           
         C36       1.0000    0.69883   0.15330   0.70730   Biso      1.000     C          0.076576  
         C37       1.0000    0.49593   0.21880   0.72180   Biso      1.000     C          0.064669  
         C38       1.0000    0.05827   0.14500   0.64790   Biso      1.000     C          -0.49031  
         C39       1.0000    0.97807   0.15330   0.43060   Biso      1.000     C          0.195295  
         C40       1.0000    0.85827   0.18840   0.46700   Biso      1.000     C          -0.185911           
         C41       1.0000    0.23367   0.05610   0.54010   Biso      1.000     C          0.598845  
         C42       1.0000    0.06307   0.20670   0.41790   Biso      1.000     C          -0.21781799999999998          
         C43       1.0000    0.10877   0.11140   0.55670   Biso      1.000     C          0.033135000000000005          
         C44       1.0000    0.01537   0.06150   0.40900   Biso      1.000     C          -0.156806           
         C45       1.0000    0.03217   0.29270   0.44600   Biso      1.000     C          0.07633999999999999           
         C46       1.0000    0.82927   0.27820   0.49700   Biso      1.000     C          0.062925  
         C47       1.0000    0.39160   0.35210   0.49710   Biso      1.000     C          -0.489655           
         C48       1.0000    0.31140   0.56940   0.72270   Biso      1.000     C          0.19662000000000002           
         C49       1.0000    0.19160   0.53300   0.72140   Biso      1.000     C          -0.186801           
         C50       1.0000    0.56700   0.45990   0.51600   Biso      1.000     C          0.598921  
         C51       1.0000    0.39640   0.58210   0.78880   Biso      1.000     C          -0.21663600000000002          
         C52       1.0000    0.34870   0.59100   0.65250   Biso      1.000     C          -0.159224           
         C53       1.0000    0.86550   0.44600   0.15330   Biso      1.000     C          0.07366900000000001           
         C54       1.0000    0.66260   0.49700   0.21880   Biso      1.000     C          0.063577  
         H1        1.0000    0.10707   0.19630   0.68810   Biso      1.000     H          0.146074  
         H2        1.0000    0.13363   0.50940   0.15980   Biso      1.000     H          0.156452  
         H3        1.0000    0.96173   0.68080   0.15310   Biso      1.000     H          0.130693  
         H4        1.0000    0.30953   0.79440   0.18410   Biso      1.000     H          0.126052  
         H5        1.0000    0.29583   0.61280   0.16130   Biso      1.000     H          0.07092999999999999           
         H6        1.0000    0.26993   0.66350   0.04790   Biso      1.000     H          0.0753    
         H7        1.0000    0.12163   0.65370   0.01940   Biso      1.000     H          0.11691700000000001           
         H8        1.0000    0.96697   0.15980   0.65040   Biso      1.000     H          0.15625999999999998           
         H9        1.0000    0.91653   0.77650   0.30180   Biso      1.000     H          0.102247  
         H10       1.0000    0.56847   0.89940   0.33610   Biso      1.000     H          0.1408    
         H11       1.0000    0.60707   0.80370   0.31190   Biso      1.000     H          0.146074  
         H12       1.0000    0.46697   0.84020   0.34960   Biso      1.000     H          0.15625999999999998           
         H13       1.0000    0.29507   0.84690   0.52770   Biso      1.000     H          0.131175  
         H14       1.0000    0.64287   0.81590   0.61030   Biso      1.000     H          0.125749  
         H15       1.0000    0.27373   0.50820   0.19630   Biso      1.000     H          0.144896  
         H16       1.0000    0.62917   0.83870   0.45150   Biso      1.000     H          0.06963899999999999           
         H17       1.0000    0.45497   0.98060   0.63430   Biso      1.000     H          0.11808800000000001           
         H18       1.0000    0.59337   0.67250   0.56180   Biso      1.000     H          0.098561  
         H19       1.0000    0.24987   0.69820   0.47470   Biso      1.000     H          0.10276500000000001           
         H20       1.0000    0.90180   0.66390   0.56330   Biso      1.000     H          0.140749  
         H21       1.0000    0.94040   0.68810   0.49180   Biso      1.000     H          0.145644  
         H22       1.0000    0.80030   0.65040   0.49060   Biso      1.000     H          0.156076  
         H23       1.0000    0.62840   0.47230   0.31920   Biso      1.000     H          0.131753  
         H24       1.0000    0.97620   0.38970   0.20560   Biso      1.000     H          0.125638  
         H25       1.0000    0.96250   0.54850   0.38720   Biso      1.000     H          0.070059  
         H26       1.0000    0.93660   0.38440   0.33650   Biso      1.000     H          0.076386  
         H27       1.0000    0.78830   0.36570   0.34630   Biso      1.000     H          0.117798  
         H28       1.0000    0.92670   0.43820   0.11070   Biso      1.000     H          0.099182  
         H29       1.0000    0.58320   0.52530   0.22350   Biso      1.000     H          0.101967  
         H30       1.0000    0.60327   0.95210   0.61560   Biso      1.000     H          0.076021  
         H31       1.0000    0.23513   0.43670   0.10060   Biso      1.000     H          0.141029  
         H32       1.0000    0.26003   0.88930   0.32750   Biso      1.000     H          0.097967  
         H33       1.0000    0.42670   0.56180   0.88930   Biso      1.000     H          0.099182  
         H34       1.0000    0.06847   0.10060   0.66390   Biso      1.000     H          0.1408    
         H35       1.0000    0.41653   0.22350   0.69820   Biso      1.000     H          0.102247  
         H36       1.0000    0.76003   0.11070   0.67250   Biso      1.000     H          0.097967  
         H37       1.0000    0.62163   0.34630   0.98060   Biso      1.000     H          0.11691700000000001           
         H38       1.0000    0.76993   0.33650   0.95210   Biso      1.000     H          0.0753    
         H39       1.0000    0.08320   0.47470   0.77650   Biso      1.000     H          0.101967  
         H40       1.0000    0.80953   0.20560   0.81590   Biso      1.000     H          0.126052  
         H41       1.0000    0.46173   0.31920   0.84690   Biso      1.000     H          0.130693  
         H42       1.0000    0.63363   0.49060   0.84020   Biso      1.000     H          0.156452  
         H43       1.0000    0.77373   0.49180   0.80370   Biso      1.000     H          0.144896  
         H44       1.0000    0.73513   0.56330   0.89940   Biso      1.000     H          0.141029  
         H45       1.0000    0.79507   0.15310   0.47230   Biso      1.000     H          0.131175  
         H46       1.0000    0.14287   0.18410   0.38970   Biso      1.000     H          0.125749  
         H47       1.0000    0.79583   0.38720   0.83870   Biso      1.000     H          0.07092999999999999           
         H48       1.0000    0.10327   0.04790   0.38440   Biso      1.000     H          0.076021  
         H49       1.0000    0.12917   0.16130   0.54850   Biso      1.000     H          0.06963899999999999           
         H50       1.0000    0.28830   0.63430   0.65370   Biso      1.000     H          0.117798  
         H51       1.0000    0.46250   0.45150   0.61280   Biso      1.000     H          0.070059  
         H52       1.0000    0.47620   0.61030   0.79440   Biso      1.000     H          0.125637  
         H53       1.0000    0.12840   0.52770   0.68080   Biso      1.000     H          0.131753  
         H54       1.0000    0.30030   0.34960   0.50940   Biso      1.000     H          0.156076  
         H55       1.0000    0.43660   0.61560   0.66350   Biso      1.000     H          0.076386  
         H56       1.0000    0.40180   0.33610   0.43670   Biso      1.000     H          0.140749  
         H57       1.0000    0.74987   0.30180   0.52530   Biso      1.000     H          0.10276500000000001           
         H58       1.0000    0.09337   0.32750   0.43820   Biso      1.000     H          0.098561  
         H59       1.0000    0.95497   0.01940   0.36570   Biso      1.000     H          0.11808800000000001           
         H60       1.0000    0.44040   0.31190   0.50820   Biso      1.000     H          0.145644  
         N1        1.0000    0.41477   0.67110   0.51500   Biso      1.000     N          -0.219404           
         N2        1.0000    0.51067   0.94540   0.50980   Biso      1.000     N          -0.509219           
         N3        1.0000    0.74810   0.48500   0.15610   Biso      1.000     N          -0.21791300000000002          
         N4        1.0000    0.84400   0.49020   0.43560   Biso      1.000     N          -0.508017           
         N5        1.0000    0.34400   0.50980   0.56440   Biso      1.000     N          -0.508017           
         N6        1.0000    0.58143   0.15610   0.67110   Biso      1.000     N          -0.22006199999999998          
         N7        1.0000    0.01067   0.05460   0.49020   Biso      1.000     N          -0.509219           
         N8        1.0000    0.91477   0.32890   0.48500   Biso      1.000     N          -0.219404           
         N9        1.0000    0.67733   0.43560   0.94540   Biso      1.000     N          -0.508152           
         N10       1.0000    0.17733   0.56440   0.05460   Biso      1.000     N          -0.508152           
         N11       1.0000    0.24810   0.51500   0.84390   Biso      1.000     N          -0.217912           
         N12       1.0000    0.08143   0.84390   0.32890   Biso      1.000     N          -0.22006199999999998          
         O1        1.0000    0.67020   0.42350   0.52540   Biso      1.000     O          -0.576124           
         O2        1.0000    0.22747   0.97450   0.49690   Biso      1.000     O          -0.5228470000000001           
         O3        1.0000    0.56080   0.50310   0.47760   Biso      1.000     O          -0.522803           
         O4        1.0000    0.50353   0.52540   0.10190   Biso      1.000     O          -0.575758           
         O5        1.0000    0.83687   0.89810   0.42350   Biso      1.000     O          -0.575904           
         O6        1.0000    0.39413   0.47760   0.97450   Biso      1.000     O          -0.5224949999999999           
         O7        1.0000    0.33687   0.10190   0.57650   Biso      1.000     O          -0.575904           
         O8        1.0000    0.72747   0.02550   0.50310   Biso      1.000     O          -0.5228470000000001           
         O9        1.0000    0.00353   0.47460   0.89810   Biso      1.000     O          -0.575758           
         O10       1.0000    0.06080   0.49690   0.52240   Biso      1.000     O          -0.522803           
         O11       1.0000    0.89413   0.52240   0.02550   Biso      1.000     O          -0.5224949999999999           
         O12       1.0000    0.17020   0.57650   0.47460   Biso      1.000     O          -0.576124           
         Zn1       1.0000    0.69979   0.53194   0.07531   Biso      1.000     Zn          0.746188  
         Zn2       1.0000    0.03313   0.92469   0.45663   Biso      1.000     Zn          0.7465609999999999  
         Zn3       1.0000    0.36646   0.54337   0.46806   Biso      1.000     Zn          0.746604  
         Zn4       1.0000    0.19979   0.46806   0.92469   Biso      1.000     Zn          0.746188  
         Zn5       1.0000    0.53313   0.07531   0.54337   Biso      1.000     Zn          0.7465609999999999  
         Zn6       1.0000    0.86646   0.45663   0.53194   Biso      1.000     Zn          0.746604 