
##########################################################################
#               Crystallographic Information Format file
#               Produced by PyCifRW module
#
#  This is a CIF file.  CIF has been adopted by the International
#  Union of Crystallography as the standard for data archiving and
#  transmission.
#
#  For information on this file format, follow the CIF links at
#  http://www.iucr.org
##########################################################################

data_image0

_cell_length_a                          10.2448
_cell_length_b                          17.4587
_cell_length_c                          17.4587
_cell_angle_alpha                       120
_cell_angle_beta                        90
_cell_angle_gamma                       90
_symmetry_space_group_name_H-M          'P 1'
_symmetry_int_tables_number             1
loop_
  _symmetry_equiv_pos_as_xyz
         'x, y, z' 
loop_
  _atom_site_label
  _atom_site_occupancy
  _atom_site_fract_x
  _atom_site_fract_y
  _atom_site_fract_z
  _atom_site_thermal_displace_type
  _atom_site_B_iso_or_equiv
  _atom_site_type_symbol
  _atom_site_charge
         C1        1.0000    0.91630   0.70800   0.54480   Biso      1.000     C          0.164858  
         C2        1.0000    0.22113   0.43090   0.06850   Biso      1.000     C          -0.135213           
         C3        1.0000    0.37243   0.53610   0.29700   Biso      1.000     C          0.105924  
         C4        1.0000    0.35043   0.51480   0.21090   Biso      1.000     C          -0.18127100000000002          
         C5        1.0000    0.24963   0.45520   0.16320   Biso      1.000     C          0.16253299999999998           
         C6        1.0000    0.97753   0.53710   0.06010   Biso      1.000     C          0.5899369999999999  
         C7        1.0000    0.20353   0.44690   0.29310   Biso      1.000     C          0.082485  
         C8        1.0000    0.17633   0.42100   0.20630   Biso      1.000     C          -0.206025           
         C9        1.0000    0.10633   0.56960   0.11010   Biso      1.000     C          0.039273  
         C10       1.0000    0.13553   0.66290   0.12800   Biso      1.000     C          -0.492256           
         C11       1.0000    0.55447   0.93150   0.36240   Biso      1.000     C          -0.135094           
         C12       1.0000    0.70577   0.70300   0.23910   Biso      1.000     C          0.10540899999999999           
         C13       1.0000    0.68377   0.78910   0.30390   Biso      1.000     C          -0.182842           
         C14       1.0000    0.58297   0.83680   0.29200   Biso      1.000     C          0.162473  
         C15       1.0000    0.31087   0.93990   0.47700   Biso      1.000     C          0.589198  
         C16       1.0000    0.53687   0.70690   0.15380   Biso      1.000     C          0.080557  
         C17       1.0000    0.50967   0.79370   0.21470   Biso      1.000     C          -0.20596  
         C18       1.0000    0.43967   0.88990   0.45950   Biso      1.000     C          0.038274  
         C19       1.0000    0.46887   0.87200   0.53490   Biso      1.000     C          -0.49168100000000003          
         C20       1.0000    0.88780   0.63760   0.56910   Biso      1.000     C          -0.137127           
         C21       1.0000    0.03910   0.76090   0.46390   Biso      1.000     C          0.10516400000000001           
         C22       1.0000    0.01710   0.69610   0.48520   Biso      1.000     C          -0.181226           
         C23       1.0000    0.64420   0.52300   0.46290   Biso      1.000     C          0.590163  
         C24       1.0000    0.87020   0.84620   0.55310   Biso      1.000     C          0.08056100000000001           
         C25       1.0000    0.30220   0.53490   0.66290   Biso      1.000     C          -0.489517           
         C26       1.0000    0.84300   0.78530   0.57900   Biso      1.000     C          -0.20674299999999998          
         C27       1.0000    0.27300   0.45950   0.56960   Biso      1.000     C          0.036900999999999996          
         C28       1.0000    0.37020   0.15380   0.44690   Biso      1.000     C          0.08056100000000001           
         C29       1.0000    0.72113   0.56910   0.93150   Biso      1.000     C          -0.135213           
         C30       1.0000    0.87243   0.46390   0.70300   Biso      1.000     C          0.105924  
         C31       1.0000    0.85043   0.48520   0.78910   Biso      1.000     C          -0.18127100000000002          
         C32       1.0000    0.74963   0.54480   0.83680   Biso      1.000     C          0.16253299999999998           
         C33       1.0000    0.47753   0.46290   0.93990   Biso      1.000     C          0.5899369999999999  
         C34       1.0000    0.70353   0.55310   0.70690   Biso      1.000     C          0.082485  
         C35       1.0000    0.67633   0.57900   0.79370   Biso      1.000     C          -0.206025           
         C36       1.0000    0.60633   0.43040   0.88990   Biso      1.000     C          0.039273  
         C37       1.0000    0.63553   0.33710   0.87200   Biso      1.000     C          -0.492256           
         C38       1.0000    0.05447   0.06850   0.63760   Biso      1.000     C          -0.135094           
         C39       1.0000    0.20577   0.29700   0.76090   Biso      1.000     C          0.10540899999999999           
         C40       1.0000    0.18377   0.21090   0.69610   Biso      1.000     C          -0.182842           
         C41       1.0000    0.08297   0.16320   0.70800   Biso      1.000     C          0.162473  
         C42       1.0000    0.81087   0.06010   0.52300   Biso      1.000     C          0.589198  
         C43       1.0000    0.03687   0.29310   0.84620   Biso      1.000     C          0.080557  
         C44       1.0000    0.00967   0.20630   0.78530   Biso      1.000     C          -0.20596  
         C45       1.0000    0.93967   0.11010   0.54050   Biso      1.000     C          0.038274  
         C46       1.0000    0.96887   0.12800   0.46510   Biso      1.000     C          -0.49168100000000003          
         C47       1.0000    0.38780   0.36240   0.43090   Biso      1.000     C          -0.137127           
         C48       1.0000    0.53910   0.23910   0.53610   Biso      1.000     C          0.10516400000000001           
         C49       1.0000    0.51710   0.30390   0.51480   Biso      1.000     C          -0.181226           
         C50       1.0000    0.41630   0.29200   0.45520   Biso      1.000     C          0.164859  
         C51       1.0000    0.14420   0.47700   0.53710   Biso      1.000     C          0.590163  
         C52       1.0000    0.34300   0.21470   0.42100   Biso      1.000     C          -0.20674299999999998          
         C53       1.0000    0.77300   0.54050   0.43040   Biso      1.000     C          0.036900999999999996          
         C54       1.0000    0.80220   0.46510   0.33710   Biso      1.000     C          -0.489517           
         Cl1       1.0000    0.66306   0.43838   0.12589   Biso      1.000     Cl          -0.573986           
         Cl2       1.0000    0.99640   0.87411   0.31249   Biso      1.000     Cl          -0.5735600000000001           
         Cl3       1.0000    0.32973   0.68751   0.56162   Biso      1.000     Cl          -0.573855           
         Cl4       1.0000    0.16306   0.56162   0.87411   Biso      1.000     Cl          -0.573986           
         Cl5       1.0000    0.49640   0.12589   0.68751   Biso      1.000     Cl          -0.5735600000000001           
         Cl6       1.0000    0.82973   0.31249   0.43838   Biso      1.000     Cl          -0.573855           
         H1        1.0000    0.93267   0.16660   0.59590   Biso      1.000     H          0.073265  
         H2        1.0000    0.44277   0.82330   0.20430   Biso      1.000     H          0.140425  
         H3        1.0000    0.48587   0.67840   0.10310   Biso      1.000     H          0.097564  
         H4        1.0000    0.73467   0.81540   0.35480   Biso      1.000     H          0.135311  
         H5        1.0000    0.77317   0.67200   0.24710   Biso      1.000     H          0.102975  
         H6        1.0000    0.62377   0.96940   0.36240   Biso      1.000     H          0.13574   
         H7        1.0000    0.98197   0.07290   0.41130   Biso      1.000     H          0.160486  
         H8        1.0000    0.06343   0.70120   0.15900   Biso      1.000     H          0.177322  
         H9        1.0000    0.21303   0.68480   0.16340   Biso      1.000     H          0.15579400000000002           
         H10       1.0000    0.43267   0.83340   0.40410   Biso      1.000     H          0.073265  
         H11       1.0000    0.14863   0.66160   0.07290   Biso      1.000     H          0.160079  
         H12       1.0000    0.09933   0.57070   0.16660   Biso      1.000     H          0.072535  
         H13       1.0000    0.10943   0.38100   0.17670   Biso      1.000     H          0.140504  
         H14       1.0000    0.28753   0.53860   0.07410   Biso      1.000     H          0.262289  
         H15       1.0000    0.48197   0.92710   0.58870   Biso      1.000     H          0.160486  
         H16       1.0000    0.62087   0.92590   0.46450   Biso      1.000     H          0.26316999999999996           
         H17       1.0000    0.54637   0.83660   0.52140   Biso      1.000     H          0.15495599999999998           
         H18       1.0000    0.15253   0.42470   0.32160   Biso      1.000     H          0.097137  
         H19       1.0000    0.80690   0.65200   0.60230   Biso      1.000     H          0.11470999999999999           
         H20       1.0000    0.95710   0.63760   0.60700   Biso      1.000     H          0.13613499999999998           
         H21       1.0000    0.10650   0.75290   0.42490   Biso      1.000     H          0.103648  
         H22       1.0000    0.06800   0.64520   0.46060   Biso      1.000     H          0.134076  
         H23       1.0000    0.81920   0.89690   0.57530   Biso      1.000     H          0.09765700000000001           
         H24       1.0000    0.77610   0.79570   0.61900   Biso      1.000     H          0.14021   
         H25       1.0000    0.76600   0.59590   0.42930   Biso      1.000     H          0.07309500000000001           
         H26       1.0000    0.81530   0.41130   0.33840   Biso      1.000     H          0.159082  
         H27       1.0000    0.73010   0.45780   0.29880   Biso      1.000     H          0.17691800000000002           
         H28       1.0000    0.87970   0.47860   0.31520   Biso      1.000     H          0.155125  
         H29       1.0000    0.95420   0.53550   0.46140   Biso      1.000     H          0.26377399999999995           
         H30       1.0000    0.39677   0.84100   0.54220   Biso      1.000     H          0.177479  
         H31       1.0000    0.40133   0.53940   0.18460   Biso      1.000     H          0.135002  
         H32       1.0000    0.47357   0.95030   0.34800   Biso      1.000     H          0.114087  
         H33       1.0000    0.29043   0.39300   0.03060   Biso      1.000     H          0.135936  
         H34       1.0000    0.93983   0.42490   0.67200   Biso      1.000     H          0.102698  
         H35       1.0000    0.90133   0.46060   0.81540   Biso      1.000     H          0.135002  
         H36       1.0000    0.65253   0.57530   0.67840   Biso      1.000     H          0.097137  
         H37       1.0000    0.60943   0.61900   0.82330   Biso      1.000     H          0.140504  
         H38       1.0000    0.59933   0.42930   0.83340   Biso      1.000     H          0.072535  
         H39       1.0000    0.64863   0.33840   0.92710   Biso      1.000     H          0.160079  
         H40       1.0000    0.43983   0.57510   0.32800   Biso      1.000     H          0.102698  
         H41       1.0000    0.71303   0.31520   0.83660   Biso      1.000     H          0.15579400000000002           
         H42       1.0000    0.78753   0.46140   0.92590   Biso      1.000     H          0.262289  
         H43       1.0000    0.97357   0.04970   0.65200   Biso      1.000     H          0.114087  
         H44       1.0000    0.12377   0.03060   0.63760   Biso      1.000     H          0.13574   
         H45       1.0000    0.27317   0.32800   0.75290   Biso      1.000     H          0.102975  
         H46       1.0000    0.23467   0.18460   0.64520   Biso      1.000     H          0.135311  
         H47       1.0000    0.98587   0.32160   0.89690   Biso      1.000     H          0.097564  
         H48       1.0000    0.94277   0.17670   0.79570   Biso      1.000     H          0.140425  
         H49       1.0000    0.79043   0.60700   0.96940   Biso      1.000     H          0.135936  
         H50       1.0000    0.64023   0.60230   0.95030   Biso      1.000     H          0.114174  
         H51       1.0000    0.56343   0.29880   0.84100   Biso      1.000     H          0.177322  
         H52       1.0000    0.89677   0.15900   0.45780   Biso      1.000     H          0.177478  
         H53       1.0000    0.26600   0.40410   0.57070   Biso      1.000     H          0.07309500000000001           
         H54       1.0000    0.31530   0.58870   0.66160   Biso      1.000     H          0.159082  
         H55       1.0000    0.23010   0.54220   0.70120   Biso      1.000     H          0.17691800000000002           
         H56       1.0000    0.37970   0.52140   0.68480   Biso      1.000     H          0.155125  
         H57       1.0000    0.27610   0.20430   0.38100   Biso      1.000     H          0.14021   
         H58       1.0000    0.31920   0.10310   0.42470   Biso      1.000     H          0.09765700000000001           
         H59       1.0000    0.45420   0.46450   0.53860   Biso      1.000     H          0.26377399999999995           
         H60       1.0000    0.60650   0.24710   0.57510   Biso      1.000     H          0.103648  
         H61       1.0000    0.45710   0.36240   0.39300   Biso      1.000     H          0.13613499999999998           
         H62       1.0000    0.14023   0.39770   0.04970   Biso      1.000     H          0.114174  
         H63       1.0000    0.30690   0.34800   0.39770   Biso      1.000     H          0.11470999999999999           
         H64       1.0000    0.12087   0.07410   0.53550   Biso      1.000     H          0.26316999999999996           
         H65       1.0000    0.04637   0.16340   0.47860   Biso      1.000     H          0.15495599999999998           
         H66       1.0000    0.56800   0.35480   0.53940   Biso      1.000     H          0.134076  
         N1        1.0000    0.46780   0.16469   0.50310   Biso      1.000     N          -0.207177           
         N2        1.0000    0.80113   0.49690   0.66159   Biso      1.000     N          -0.208971           
         N3        1.0000    0.71043   0.49117   0.94237   Biso      1.000     N          -0.35175100000000004          
         N4        1.0000    0.13447   0.33841   0.83531   Biso      1.000     N          -0.20613099999999998          
         N5        1.0000    0.04377   0.05763   0.54880   Biso      1.000     N          -0.351962           
         N6        1.0000    0.37710   0.45120   0.50883   Biso      1.000     N          -0.352679           
         N7        1.0000    0.54377   0.94237   0.45120   Biso      1.000     N          -0.351961           
         N8        1.0000    0.21043   0.50883   0.05763   Biso      1.000     N          -0.35175100000000004          
         N9        1.0000    0.63447   0.66159   0.16469   Biso      1.000     N          -0.20613099999999998          
         N10       1.0000    0.96780   0.83531   0.49690   Biso      1.000     N          -0.207177           
         N11       1.0000    0.87710   0.54880   0.49117   Biso      1.000     N          -0.352679           
         N12       1.0000    0.30113   0.50310   0.33841   Biso      1.000     N          -0.208971           
         O1        1.0000    0.20867   0.89451   0.46080   Biso      1.000     O          -0.5552   
         O2        1.0000    0.70867   0.10549   0.53920   Biso      1.000     O          -0.5552   
         O3        1.0000    0.81547   0.97760   0.49114   Biso      1.000     O          -0.554365           
         O4        1.0000    0.04200   0.46080   0.56629   Biso      1.000     O          -0.555284           
         O5        1.0000    0.14880   0.50886   0.48646   Biso      1.000     O          -0.5546909999999999           
         O6        1.0000    0.87533   0.56629   0.10549   Biso      1.000     O          -0.554391           
         O7        1.0000    0.98213   0.48646   0.97760   Biso      1.000     O          -0.555905           
         O8        1.0000    0.31547   0.02240   0.50886   Biso      1.000     O          -0.5543640000000001           
         O9        1.0000    0.37533   0.43371   0.89451   Biso      1.000     O          -0.554391           
         O10       1.0000    0.64880   0.49114   0.51354   Biso      1.000     O          -0.5546909999999999           
         O11       1.0000    0.48213   0.51354   0.02240   Biso      1.000     O          -0.555905           
         O12       1.0000    0.54200   0.53920   0.43371   Biso      1.000     O          -0.555284           
         Zn1       1.0000    0.67902   0.53313   0.07503   Biso      1.000     Zn          0.726182  
         Zn2       1.0000    0.01236   0.92497   0.45810   Biso      1.000     Zn          0.725193  
         Zn3       1.0000    0.34569   0.54190   0.46687   Biso      1.000     Zn          0.726414  
         Zn4       1.0000    0.17902   0.46687   0.92497   Biso      1.000     Zn          0.726182  
         Zn5       1.0000    0.51236   0.07503   0.54190   Biso      1.000     Zn          0.725193  
         Zn6       1.0000    0.84569   0.45810   0.53313   Biso      1.000     Zn          0.726414 