
##########################################################################
#               Crystallographic Information Format file
#               Produced by PyCifRW module
#
#  This is a CIF file.  CIF has been adopted by the International
#  Union of Crystallography as the standard for data archiving and
#  transmission.
#
#  For information on this file format, follow the CIF links at
#  http://www.iucr.org
##########################################################################

data_image0

_cell_length_a                          10.3953
_cell_length_b                          17.4542
_cell_length_c                          17.4542
_cell_angle_alpha                       120
_cell_angle_beta                        90
_cell_angle_gamma                       90
_symmetry_space_group_name_H-M          'P 1'
_symmetry_int_tables_number             1
loop_
  _symmetry_equiv_pos_as_xyz
         'x, y, z' 
loop_
  _atom_site_label
  _atom_site_occupancy
  _atom_site_fract_x
  _atom_site_fract_y
  _atom_site_fract_z
  _atom_site_thermal_displace_type
  _atom_site_B_iso_or_equiv
  _atom_site_type_symbol
  _atom_site_charge
         C1        1.0000    0.17963   0.93770   0.58770   Biso      1.000     C          -0.127946           
         C2        1.0000    0.23423   0.88840   0.31510   Biso      1.000     C          -0.515992           
         C3        1.0000    0.00693   0.71940   0.50010   Biso      1.000     C          0.06515599999999999           
         C4        1.0000    0.03023   0.80720   0.52750   Biso      1.000     C          -0.21686100000000003          
         C5        1.0000    0.14533   0.84570   0.56890   Biso      1.000     C          0.117854  
         C6        1.0000    0.19913   0.70760   0.55870   Biso      1.000     C          0.042109  
         C7        1.0000    0.30563   0.88390   0.45040   Biso      1.000     C          -0.071872           
         C8        1.0000    0.22893   0.79580   0.58780   Biso      1.000     C          -0.219875           
         C9        1.0000    0.42403   0.94240   0.46730   Biso      1.000     C          0.573963  
         C10       1.0000    0.51247   0.67010   0.42580   Biso      1.000     C          -0.508452           
         C11       1.0000    0.60837   0.64790   0.47790   Biso      1.000     C          0.111998  
         C12       1.0000    0.56757   0.68490   0.57330   Biso      1.000     C          -0.515694           
         C13       1.0000    0.34027   0.49990   0.21930   Biso      1.000     C          0.06627999999999999           
         C14       1.0000    0.36357   0.47250   0.27970   Biso      1.000     C          -0.216272           
         C15       1.0000    0.51297   0.41230   0.35000   Biso      1.000     C          -0.125031           
         C16       1.0000    0.17913   0.75570   0.32990   Biso      1.000     C          -0.5047699999999999           
         C17       1.0000    0.47867   0.43110   0.27680   Biso      1.000     C          0.117501  
         C18       1.0000    0.63897   0.54960   0.43350   Biso      1.000     C          -0.069836           
         C19       1.0000    0.56227   0.41220   0.20800   Biso      1.000     C          -0.222187           
         C20       1.0000    0.75737   0.53270   0.47510   Biso      1.000     C          0.573188  
         C21       1.0000    0.84580   0.57420   0.24430   Biso      1.000     C          -0.505165           
         C22       1.0000    0.94170   0.52210   0.17000   Biso      1.000     C          0.11201300000000002           
         C23       1.0000    0.90090   0.42670   0.11160   Biso      1.000     C          -0.518257           
         C24       1.0000    0.67360   0.78070   0.28060   Biso      1.000     C          0.06619900000000001           
         C25       1.0000    0.69690   0.72030   0.19280   Biso      1.000     C          -0.216982           
         C26       1.0000    0.84630   0.65000   0.06230   Biso      1.000     C          -0.12748800000000002          
         C27       1.0000    0.81200   0.72320   0.15430   Biso      1.000     C          0.118208  
         C28       1.0000    0.86580   0.85110   0.29240   Biso      1.000     C          0.044625  
         C29       1.0000    0.97230   0.56650   0.11610   Biso      1.000     C          -0.070982           
         C30       1.0000    0.89560   0.79200   0.20420   Biso      1.000     C          -0.222293           
         C31       1.0000    0.09070   0.52490   0.05760   Biso      1.000     C          0.575436  
         C32       1.0000    0.53247   0.44130   0.14890   Biso      1.000     C          0.043858  
         C33       1.0000    0.59070   0.47510   0.94240   Biso      1.000     C          0.575436  
         C34       1.0000    0.27503   0.83000   0.35210   Biso      1.000     C          0.112247  
         C35       1.0000    0.47230   0.43350   0.88390   Biso      1.000     C          -0.070982           
         C36       1.0000    0.06757   0.31510   0.42670   Biso      1.000     C          -0.515694           
         C37       1.0000    0.10837   0.35210   0.52210   Biso      1.000     C          0.111998  
         C38       1.0000    0.01247   0.32990   0.57420   Biso      1.000     C          -0.508452           
         C39       1.0000    0.92403   0.05760   0.53270   Biso      1.000     C          0.573963  
         C40       1.0000    0.72893   0.20420   0.41220   Biso      1.000     C          -0.21987800000000002          
         C41       1.0000    0.80563   0.11610   0.54960   Biso      1.000     C          -0.071872           
         C42       1.0000    0.39560   0.20800   0.79580   Biso      1.000     C          -0.222296           
         C43       1.0000    0.69913   0.29240   0.44130   Biso      1.000     C          0.04211   
         C44       1.0000    0.67963   0.06230   0.41230   Biso      1.000     C          -0.127946           
         C45       1.0000    0.53023   0.19280   0.47250   Biso      1.000     C          -0.21686399999999997          
         C46       1.0000    0.50693   0.28060   0.49990   Biso      1.000     C          0.06515900000000001           
         C47       1.0000    0.73423   0.11160   0.68490   Biso      1.000     C          -0.515993           
         C48       1.0000    0.77503   0.17000   0.64790   Biso      1.000     C          0.112247  
         C49       1.0000    0.67913   0.24430   0.67010   Biso      1.000     C          -0.5047699999999999           
         C50       1.0000    0.64533   0.15430   0.43110   Biso      1.000     C          0.11785799999999999           
         C51       1.0000    0.86357   0.52750   0.72030   Biso      1.000     C          -0.216275           
         C52       1.0000    0.84027   0.50010   0.78070   Biso      1.000     C          0.06628200000000001           
         C53       1.0000    0.97867   0.56890   0.72320   Biso      1.000     C          0.117502  
         C54       1.0000    0.36580   0.14890   0.70760   Biso      1.000     C          0.044625  
         C55       1.0000    0.31200   0.27680   0.84570   Biso      1.000     C          0.118209  
         C56       1.0000    0.34630   0.35000   0.93770   Biso      1.000     C          -0.12748800000000002          
         C57       1.0000    0.01297   0.58770   0.65000   Biso      1.000     C          -0.12503  
         C58       1.0000    0.17360   0.21930   0.71940   Biso      1.000     C          0.066198  
         C59       1.0000    0.40090   0.57330   0.88840   Biso      1.000     C          -0.518257           
         C60       1.0000    0.19690   0.27970   0.80720   Biso      1.000     C          -0.216981           
         C61       1.0000    0.34580   0.42580   0.75570   Biso      1.000     C          -0.505165           
         C62       1.0000    0.25737   0.46730   0.52490   Biso      1.000     C          0.573188  
         C63       1.0000    0.06227   0.58780   0.79200   Biso      1.000     C          -0.222187           
         C64       1.0000    0.13897   0.45040   0.56650   Biso      1.000     C          -0.069836           
         C65       1.0000    0.03247   0.55870   0.85110   Biso      1.000     C          0.043858  
         C66       1.0000    0.44170   0.47790   0.83000   Biso      1.000     C          0.11201300000000002           
         H1        1.0000    0.82583   0.15770   0.52910   Biso      1.000     H          0.088736  
         H2        1.0000    0.43063   0.30630   0.52950   Biso      1.000     H          0.093979  
         H3        1.0000    0.75653   0.32620   0.42980   Biso      1.000     H          0.086099  
         H4        1.0000    0.61223   0.02140   0.37690   Biso      1.000     H          0.12418199999999999           
         H5        1.0000    0.75893   0.04350   0.37850   Biso      1.000     H          0.110365  
         H6        1.0000    0.66963   0.07070   0.64730   Biso      1.000     H          0.128494  
         H7        1.0000    0.85563   0.19840   0.67770   Biso      1.000     H          0.062234000000000005          
         H8        1.0000    0.80733   0.07940   0.68750   Biso      1.000     H          0.151877  
         H9        1.0000    0.71073   0.28150   0.64820   Biso      1.000     H          0.156357  
         H10       1.0000    0.66853   0.27890   0.73310   Biso      1.000     H          0.151556  
         H11       1.0000    0.59783   0.21960   0.64310   Biso      1.000     H          0.14655   
         H12       1.0000    0.80403   0.17930   0.38050   Biso      1.000     H          0.12301199999999998           
         H13       1.0000    0.69983   0.14760   0.74330   Biso      1.000     H          0.15423699999999999           
         H14       1.0000    0.62233   0.08100   0.52760   Biso      1.000     H          0.262388  
         H15       1.0000    0.46883   0.15950   0.48170   Biso      1.000     H          0.10348199999999999           
         H16       1.0000    0.00187   0.26690   0.54580   Biso      1.000     H          0.152847  
         H17       1.0000    0.59227   0.37850   0.33500   Biso      1.000     H          0.110642  
         H18       1.0000    0.30217   0.48170   0.32220   Biso      1.000     H          0.10305999999999998           
         H19       1.0000    0.26397   0.52950   0.22320   Biso      1.000     H          0.09328099999999999           
         H20       1.0000    0.50297   0.64730   0.57660   Biso      1.000     H          0.128871  
         H21       1.0000    0.53317   0.74330   0.59570   Biso      1.000     H          0.154814  
         H22       1.0000    0.64067   0.68750   0.60810   Biso      1.000     H          0.15095799999999998           
         H23       1.0000    0.68897   0.67770   0.47930   Biso      1.000     H          0.062498000000000005          
         H24       1.0000    0.54407   0.64820   0.36670   Biso      1.000     H          0.15775799999999998           
         H25       1.0000    0.93117   0.35690   0.57650   Biso      1.000     H          0.147001  
         H26       1.0000    0.43117   0.64310   0.42350   Biso      1.000     H          0.147001  
         H27       1.0000    0.12233   0.91900   0.47240   Biso      1.000     H          0.262388  
         H28       1.0000    0.30403   0.82070   0.61950   Biso      1.000     H          0.12301199999999998           
         H29       1.0000    0.32583   0.84230   0.47090   Biso      1.000     H          0.088736  
         H30       1.0000    0.25653   0.67380   0.57020   Biso      1.000     H          0.086099  
         H31       1.0000    0.11223   0.97860   0.62310   Biso      1.000     H          0.12418199999999999           
         H32       1.0000    0.44557   0.37690   0.35550   Biso      1.000     H          0.12267   
         H33       1.0000    0.58987   0.42980   0.10360   Biso      1.000     H          0.086204  
         H34       1.0000    0.65917   0.52910   0.37140   Biso      1.000     H          0.088174  
         H35       1.0000    0.63737   0.38050   0.20120   Biso      1.000     H          0.12416500000000001           
         H36       1.0000    0.78900   0.55340   0.08100   Biso      1.000     H          0.26353699999999997           
         H37       1.0000    0.97070   0.79880   0.17930   Biso      1.000     H          0.123671  
         H38       1.0000    0.99250   0.62860   0.15770   Biso      1.000     H          0.087752  
         H39       1.0000    0.92320   0.89640   0.32620   Biso      1.000     H          0.085917  
         H40       1.0000    0.77890   0.64450   0.02140   Biso      1.000     H          0.12337999999999999           
         H41       1.0000    0.92560   0.66500   0.04350   Biso      1.000     H          0.11073399999999999           
         H42       1.0000    0.63550   0.67780   0.15950   Biso      1.000     H          0.10385899999999999           
         H43       1.0000    0.25893   0.95650   0.62150   Biso      1.000     H          0.110365  
         H44       1.0000    0.59730   0.77680   0.30630   Biso      1.000     H          0.093195  
         H45       1.0000    0.86650   0.40430   0.14760   Biso      1.000     H          0.155162  
         H46       1.0000    0.97400   0.39190   0.07940   Biso      1.000     H          0.151651  
         H47       1.0000    0.02230   0.52070   0.19840   Biso      1.000     H          0.06250900000000001           
         H48       1.0000    0.87740   0.63330   0.28150   Biso      1.000     H          0.15677   
         H49       1.0000    0.83520   0.54580   0.27890   Biso      1.000     H          0.151645  
         H50       1.0000    0.76450   0.57650   0.21960   Biso      1.000     H          0.14649   
         H51       1.0000    0.45567   0.52760   0.44660   Biso      1.000     H          0.26314499999999996           
         H52       1.0000    0.83630   0.42340   0.07070   Biso      1.000     H          0.13001600000000002           
         H53       1.0000    0.96883   0.84050   0.51830   Biso      1.000     H          0.10348199999999999           
         H54       1.0000    0.50187   0.73310   0.45420   Biso      1.000     H          0.152847  
         H55       1.0000    0.16963   0.92930   0.35270   Biso      1.000     H          0.128494  
         H56       1.0000    0.33520   0.45420   0.72110   Biso      1.000     H          0.151645  
         H57       1.0000    0.26450   0.42350   0.78040   Biso      1.000     H          0.14649   
         H58       1.0000    0.95567   0.47240   0.55340   Biso      1.000     H          0.26314499999999996           
         H59       1.0000    0.13737   0.61950   0.79880   Biso      1.000     H          0.12416500000000001           
         H60       1.0000    0.15917   0.47090   0.62860   Biso      1.000     H          0.088174  
         H61       1.0000    0.08987   0.57020   0.89640   Biso      1.000     H          0.086204  
         H62       1.0000    0.93063   0.69370   0.47050   Biso      1.000     H          0.093979  
         H63       1.0000    0.09227   0.62150   0.66500   Biso      1.000     H          0.110642  
         H64       1.0000    0.80217   0.51830   0.67780   Biso      1.000     H          0.10305999999999998           
         H65       1.0000    0.76397   0.47050   0.77680   Biso      1.000     H          0.09328099999999999           
         H66       1.0000    0.00297   0.35270   0.42340   Biso      1.000     H          0.128871  
         H67       1.0000    0.03317   0.25670   0.40430   Biso      1.000     H          0.154814  
         H68       1.0000    0.14067   0.31250   0.39190   Biso      1.000     H          0.15095799999999998           
         H69       1.0000    0.18897   0.32230   0.52070   Biso      1.000     H          0.062498000000000005          
         H70       1.0000    0.04407   0.35180   0.63330   Biso      1.000     H          0.15775799999999998           
         H71       1.0000    0.37740   0.36670   0.71850   Biso      1.000     H          0.15677   
         H72       1.0000    0.52230   0.47930   0.80160   Biso      1.000     H          0.06250900000000001           
         H73       1.0000    0.94557   0.62310   0.64450   Biso      1.000     H          0.12267   
         H74       1.0000    0.36650   0.59570   0.85240   Biso      1.000     H          0.155162  
         H75       1.0000    0.47400   0.60810   0.92060   Biso      1.000     H          0.151651  
         H76       1.0000    0.19983   0.85240   0.25670   Biso      1.000     H          0.15423699999999999           
         H77       1.0000    0.30733   0.92060   0.31250   Biso      1.000     H          0.151877  
         H78       1.0000    0.35563   0.80160   0.32230   Biso      1.000     H          0.062234000000000005          
         H79       1.0000    0.16853   0.72110   0.26690   Biso      1.000     H          0.151556  
         H80       1.0000    0.09783   0.78040   0.35690   Biso      1.000     H          0.14655   
         H81       1.0000    0.28900   0.44660   0.91900   Biso      1.000     H          0.26353699999999997           
         H82       1.0000    0.47070   0.20120   0.82070   Biso      1.000     H          0.123671  
         H83       1.0000    0.21073   0.71850   0.35180   Biso      1.000     H          0.156357  
         H84       1.0000    0.42320   0.10360   0.67380   Biso      1.000     H          0.085918  
         H85       1.0000    0.27890   0.35550   0.97860   Biso      1.000     H          0.12337999999999999           
         H86       1.0000    0.42560   0.33500   0.95650   Biso      1.000     H          0.11073399999999999           
         H87       1.0000    0.13550   0.32220   0.84050   Biso      1.000     H          0.10385899999999999           
         H88       1.0000    0.09730   0.22320   0.69370   Biso      1.000     H          0.093195  
         H89       1.0000    0.33630   0.57660   0.92930   Biso      1.000     H          0.13001600000000002           
         H90       1.0000    0.49250   0.37140   0.84230   Biso      1.000     H          0.087753  
         N1        1.0000    0.69563   0.06000   0.49530   Biso      1.000     N          -0.302636           
         N2        1.0000    0.52897   0.49530   0.43530   Biso      1.000     N          -0.305402           
         N3        1.0000    0.42447   0.48530   0.15560   Biso      1.000     N          -0.202818           
         N4        1.0000    0.86230   0.56470   0.06000   Biso      1.000     N          -0.304014           
         N5        1.0000    0.75780   0.84440   0.32970   Biso      1.000     N          -0.20269500000000001          
         N6        1.0000    0.02897   0.50470   0.56470   Biso      1.000     N          -0.305402           
         N7        1.0000    0.36230   0.43530   0.94000   Biso      1.000     N          -0.304014           
         N8        1.0000    0.92447   0.51470   0.84440   Biso      1.000     N          -0.202818           
         N9        1.0000    0.09113   0.67030   0.51470   Biso      1.000     N          -0.201017           
         N10       1.0000    0.59113   0.32970   0.48530   Biso      1.000     N          -0.201016           
         N11       1.0000    0.25780   0.15560   0.67030   Biso      1.000     N          -0.20269500000000001          
         N12       1.0000    0.19563   0.94000   0.50470   Biso      1.000     N          -0.302636           
         O1        1.0000    0.41433   0.02550   0.51150   Biso      1.000     O          -0.522192           
         O2        1.0000    0.35937   0.43460   0.53390   Biso      1.000     O          -0.536246           
         O3        1.0000    0.58100   0.51400   0.02550   Biso      1.000     O          -0.521818           
         O4        1.0000    0.69270   0.46610   0.90070   Biso      1.000     O          -0.538143           
         O5        1.0000    0.74767   0.48850   0.51400   Biso      1.000     O          -0.522039           
         O6        1.0000    0.52603   0.90070   0.43460   Biso      1.000     O          -0.536679           
         O7        1.0000    0.24767   0.51150   0.48600   Biso      1.000     O          -0.522039           
         O8        1.0000    0.85937   0.56540   0.46610   Biso      1.000     O          -0.536246           
         O9        1.0000    0.91433   0.97450   0.48850   Biso      1.000     O          -0.522192           
         O10       1.0000    0.19270   0.53390   0.09930   Biso      1.000     O          -0.538143           
         O11       1.0000    0.02603   0.09930   0.56540   Biso      1.000     O          -0.536679           
         O12       1.0000    0.08100   0.48600   0.97450   Biso      1.000     O          -0.521818           
         Zn1       1.0000    0.71792   0.92866   0.46204   Biso      1.000     Zn          0.365245  
         Zn2       1.0000    0.05126   0.53796   0.46662   Biso      1.000     Zn          0.36489699999999997           
         Zn3       1.0000    0.38459   0.53338   0.07134   Biso      1.000     Zn          0.364956  
         Zn4       1.0000    0.21792   0.07134   0.53796   Biso      1.000     Zn          0.365246  
         Zn5       1.0000    0.55126   0.46204   0.53338   Biso      1.000     Zn          0.36489499999999997           
         Zn6       1.0000    0.88459   0.46662   0.92866   Biso      1.000     Zn          0.36495500000000003 