
##########################################################################
#               Crystallographic Information Format file
#               Produced by PyCifRW module
#
#  This is a CIF file.  CIF has been adopted by the International
#  Union of Crystallography as the standard for data archiving and
#  transmission.
#
#  For information on this file format, follow the CIF links at
#  http://www.iucr.org
##########################################################################

data_image0

_cell_length_a                          11.37
_cell_length_b                          11.4274
_cell_length_c                          12.1912
_cell_angle_alpha                       67.952
_cell_angle_beta                        87.743
_cell_angle_gamma                       69.803
_symmetry_space_group_name_H-M          'P 1'
_symmetry_int_tables_number             1
loop_
  _symmetry_equiv_pos_as_xyz
         'x, y, z' 
loop_
  _atom_site_label
  _atom_site_occupancy
  _atom_site_fract_x
  _atom_site_fract_y
  _atom_site_fract_z
  _atom_site_thermal_displace_type
  _atom_site_B_iso_or_equiv
  _atom_site_type_symbol
  _atom_site_charge
         C1        1.0000    0.82650   0.80060   0.06880   Biso      1.000     C          0.22541599999999998           
         C2        1.0000    0.41100   0.69480   0.15440   Biso      1.000     C          -0.15724200000000002          
         C3        1.0000    0.47730   0.01440   0.84150   Biso      1.000     C          -0.127585           
         C4        1.0000    0.28800   0.12970   0.33620   Biso      1.000     C          -0.515385           
         C5        1.0000    0.32060   0.01640   0.45310   Biso      1.000     C          0.21885   
         C6        1.0000    0.32570   0.88360   0.47930   Biso      1.000     C          -0.11524100000000001          
         C7        1.0000    0.35460   0.82130   0.59640   Biso      1.000     C          0.208921  
         C8        1.0000    0.37060   0.67990   0.68250   Biso      1.000     C          -0.512675           
         C9        1.0000    0.34040   0.35840   0.46710   Biso      1.000     C          -0.126929           
         C10       1.0000    0.30860   0.82200   0.39570   Biso      1.000     C          -0.30093200000000003          
         C11       1.0000    0.06830   0.94230   0.37940   Biso      1.000     C          -0.21964499999999998          
         C12       1.0000    0.95070   0.95740   0.34260   Biso      1.000     C          -0.024356           
         C13       1.0000    0.93510   0.87960   0.28590   Biso      1.000     C          -0.211416           
         C14       1.0000    0.04270   0.78780   0.26650   Biso      1.000     C          0.291871  
         C15       1.0000    0.03970   0.70080   0.20220   Biso      1.000     C          -0.29831399999999997          
         C16       1.0000    0.84270   0.91570   0.97110   Biso      1.000     C          -0.5082810000000001           
         C17       1.0000    0.91340   0.70570   0.16930   Biso      1.000     C          -0.131208           
         C18       1.0000    0.17210   0.84840   0.35880   Biso      1.000     C          0.29255   
         C19       1.0000    0.10740   0.50400   0.65070   Biso      1.000     C          -0.513202           
         C20       1.0000    0.14680   0.38160   0.76470   Biso      1.000     C          0.207525  
         C21       1.0000    0.08660   0.29430   0.83070   Biso      1.000     C          -0.13121  
         C22       1.0000    0.65960   0.64160   0.53290   Biso      1.000     C          -0.126925           
         C23       1.0000    0.58900   0.30520   0.84560   Biso      1.000     C          -0.157244           
         C24       1.0000    0.52270   0.98560   0.15850   Biso      1.000     C          -0.127573           
         C25       1.0000    0.71200   0.87030   0.66380   Biso      1.000     C          -0.515385           
         C26       1.0000    0.67940   0.98360   0.54690   Biso      1.000     C          0.21884699999999999           
         C27       1.0000    0.67430   0.11640   0.52070   Biso      1.000     C          -0.11524100000000001          
         C28       1.0000    0.64540   0.17870   0.40360   Biso      1.000     C          0.208923  
         C29       1.0000    0.62940   0.32010   0.31750   Biso      1.000     C          -0.5126729999999999           
         C30       1.0000    0.69140   0.17800   0.60430   Biso      1.000     C          -0.30093200000000003          
         C31       1.0000    0.82790   0.15160   0.64120   Biso      1.000     C          0.292551  
         C32       1.0000    0.93170   0.05770   0.62060   Biso      1.000     C          -0.21964499999999998          
         C33       1.0000    0.04930   0.04260   0.65740   Biso      1.000     C          -0.024354           
         C34       1.0000    0.06490   0.12040   0.71410   Biso      1.000     C          -0.211416           
         C35       1.0000    0.95730   0.21220   0.73350   Biso      1.000     C          0.29186999999999996           
         C36       1.0000    0.96030   0.29920   0.79780   Biso      1.000     C          -0.298311           
         C37       1.0000    0.15730   0.08430   0.02890   Biso      1.000     C          -0.508283           
         C38       1.0000    0.17350   0.19940   0.93120   Biso      1.000     C          0.225421  
         C39       1.0000    0.85320   0.61840   0.23530   Biso      1.000     C          0.207529  
         C40       1.0000    0.89260   0.49600   0.34930   Biso      1.000     C          -0.513202           
         Cu1       1.0000    0.31511   0.63247   0.27502   Biso      1.000     Cu          0.30034   
         Cu2       1.0000    0.37101   0.18390   0.58052   Biso      1.000     Cu          0.264305  
         Cu3       1.0000    0.54820   0.87651   0.98994   Biso      1.000     Cu          0.249342  
         Cu4       1.0000    0.68489   0.36753   0.72498   Biso      1.000     Cu          0.30035   
         Cu5       1.0000    0.62899   0.81610   0.41948   Biso      1.000     Cu          0.264318  
         Cu6       1.0000    0.45180   0.12349   0.01006   Biso      1.000     Cu          0.24934299999999998           
         H1        1.0000    0.64630   0.27690   0.56670   Biso      1.000     H          0.13461700000000001           
         H2        1.0000    0.29080   0.67930   0.71580   Biso      1.000     H          0.16205999999999998           
         H3        1.0000    0.35370   0.72310   0.43330   Biso      1.000     H          0.13461800000000002           
         H4        1.0000    0.34880   0.85680   0.32310   Biso      1.000     H          0.147339  
         H5        1.0000    0.07910   0.99600   0.41900   Biso      1.000     H          0.11884700000000001           
         H6        1.0000    0.87910   0.02210   0.35620   Biso      1.000     H          0.097287  
         H7        1.0000    0.65120   0.14320   0.67690   Biso      1.000     H          0.147339  
         H8        1.0000    0.08110   0.72680   0.12850   Biso      1.000     H          0.137266  
         H9        1.0000    0.09060   0.60600   0.25250   Biso      1.000     H          0.137883  
         H10       1.0000    0.76900   0.96050   0.91180   Biso      1.000     H          0.165415  
         H11       1.0000    0.85140   0.98000   0.00250   Biso      1.000     H          0.169728  
         H12       1.0000    0.39510   0.61820   0.64050   Biso      1.000     H          0.173466  
         H13       1.0000    0.39080   0.89060   0.71610   Biso      1.000     H          0.300852  
         H14       1.0000    0.68300   0.62190   0.19530   Biso      1.000     H          0.295236  
         H15       1.0000    0.82310   0.50040   0.39960   Biso      1.000     H          0.173921  
         H16       1.0000    0.96620   0.49300   0.39100   Biso      1.000     H          0.177755  
         H17       1.0000    0.91420   0.41450   0.33170   Biso      1.000     H          0.167262  
         H18       1.0000    0.91840   0.88350   0.93390   Biso      1.000     H          0.162523  
         H19       1.0000    0.43620   0.65040   0.74690   Biso      1.000     H          0.175975  
         H20       1.0000    0.85350   0.88810   0.26070   Biso      1.000     H          0.12529200000000001           
         H21       1.0000    0.33770   0.10040   0.27760   Biso      1.000     H          0.167726  
         H22       1.0000    0.70920   0.32070   0.28420   Biso      1.000     H          0.16205899999999998           
         H23       1.0000    0.60490   0.38180   0.35950   Biso      1.000     H          0.173467  
         H24       1.0000    0.56380   0.34960   0.25310   Biso      1.000     H          0.175975  
         H25       1.0000    0.30650   0.20500   0.34200   Biso      1.000     H          0.165492  
         H26       1.0000    0.66230   0.89960   0.72240   Biso      1.000     H          0.167726  
         H27       1.0000    0.80190   0.84080   0.68870   Biso      1.000     H          0.165348  
         H28       1.0000    0.92090   0.00400   0.58100   Biso      1.000     H          0.11884600000000001           
         H29       1.0000    0.12090   0.97790   0.64380   Biso      1.000     H          0.097285  
         H30       1.0000    0.14650   0.11190   0.73930   Biso      1.000     H          0.125291  
         H31       1.0000    0.91890   0.27320   0.87150   Biso      1.000     H          0.137266  
         H32       1.0000    0.69350   0.79500   0.65800   Biso      1.000     H          0.165491  
         H33       1.0000    0.08580   0.58550   0.66830   Biso      1.000     H          0.167261  
         H34       1.0000    0.08160   0.11650   0.06610   Biso      1.000     H          0.162523  
         H35       1.0000    0.14860   0.02000   0.99750   Biso      1.000     H          0.169729  
         H36       1.0000    0.23100   0.03950   0.08820   Biso      1.000     H          0.165417  
         H37       1.0000    0.60920   0.10940   0.28390   Biso      1.000     H          0.30085300000000004           
         H38       1.0000    0.31700   0.37810   0.80470   Biso      1.000     H          0.29523699999999997           
         H39       1.0000    0.17690   0.49960   0.60040   Biso      1.000     H          0.173921  
         H40       1.0000    0.03380   0.50700   0.60900   Biso      1.000     H          0.177755  
         H41       1.0000    0.19810   0.15920   0.31130   Biso      1.000     H          0.165348  
         H42       1.0000    0.90940   0.39400   0.74750   Biso      1.000     H          0.137883  
         N1        1.0000    0.84080   0.22730   0.69640   Biso      1.000     N          -0.30552199999999996          
         N2        1.0000    0.63040   0.09010   0.35900   Biso      1.000     N          -0.2027   
         N3        1.0000    0.53130   0.25470   0.91570   Biso      1.000     N          -0.31495700000000004          
         N4        1.0000    0.56500   0.91300   0.25280   Biso      1.000     N          -0.30709200000000003          
         N5        1.0000    0.26120   0.33850   0.82690   Biso      1.000     N          -0.192251           
         N6        1.0000    0.65370   0.96820   0.44940   Biso      1.000     N          -0.190532           
         N7        1.0000    0.27780   0.22650   0.92750   Biso      1.000     N          -0.173046           
         N8        1.0000    0.15920   0.77270   0.30360   Biso      1.000     N          -0.305519           
         N9        1.0000    0.46870   0.74530   0.08430   Biso      1.000     N          -0.314963           
         N10       1.0000    0.43500   0.08700   0.74720   Biso      1.000     N          -0.307084           
         N11       1.0000    0.34630   0.03180   0.55060   Biso      1.000     N          -0.190547           
         N12       1.0000    0.36960   0.90990   0.64100   Biso      1.000     N          -0.202679           
         N13       1.0000    0.73880   0.66150   0.17310   Biso      1.000     N          -0.192248           
         N14       1.0000    0.72220   0.77350   0.07250   Biso      1.000     N          -0.17305  
         N15       1.0000    0.32650   0.46200   0.39370   Biso      1.000     N          -0.33192699999999997          
         N16       1.0000    0.67350   0.53800   0.60630   Biso      1.000     N          -0.331934 