
##########################################################################
#               Crystallographic Information Format file
#               Produced by PyCifRW module
#
#  This is a CIF file.  CIF has been adopted by the International
#  Union of Crystallography as the standard for data archiving and
#  transmission.
#
#  For information on this file format, follow the CIF links at
#  http://www.iucr.org
##########################################################################

data_image0

_cell_length_a                          11.4569
_cell_length_b                          11.4723
_cell_length_c                          13.1199
_cell_angle_alpha                       90.176
_cell_angle_beta                        115.705
_cell_angle_gamma                       110.147
_symmetry_space_group_name_H-M          'P 1'
_symmetry_int_tables_number             1
loop_
  _symmetry_equiv_pos_as_xyz
         'x, y, z' 
loop_
  _atom_site_label
  _atom_site_occupancy
  _atom_site_fract_x
  _atom_site_fract_y
  _atom_site_fract_z
  _atom_site_thermal_displace_type
  _atom_site_B_iso_or_equiv
  _atom_site_type_symbol
  _atom_site_charge
         C1        1.0000    0.20246   0.32330   0.10029   Biso      1.000     C          0.21581799999999998           
         C2        1.0000    0.29618   0.90997   0.18121   Biso      1.000     C          -0.14640699999999998          
         C3        1.0000    0.01662   0.98550   0.84877   Biso      1.000     C          -0.11766199999999999          
         C4        1.0000    0.83620   0.78610   0.33917   Biso      1.000     C          -0.529687           
         C5        1.0000    0.96671   0.81970   0.44991   Biso      1.000     C          0.21395799999999998           
         C6        1.0000    0.09954   0.82449   0.47059   Biso      1.000     C          -0.127692           
         C7        1.0000    0.18052   0.85820   0.58654   Biso      1.000     C          0.22326500000000002           
         C8        1.0000    0.33240   0.87650   0.66130   Biso      1.000     C          -0.5264   
         C9        1.0000    0.64355   0.84850   0.48797   Biso      1.000     C          -0.127549           
         C10       1.0000    0.14520   0.80050   0.38385   Biso      1.000     C          -0.310814           
         C11       1.0000    0.05390   0.56500   0.38590   Biso      1.000     C          -0.22257600000000002          
         C12       1.0000    0.05130   0.44820   0.36040   Biso      1.000     C          -0.024904           
         C13       1.0000    0.13050   0.43520   0.30960   Biso      1.000     C          -0.21005700000000002          
         C14       1.0000    0.21059   0.54015   0.28651   Biso      1.000     C          0.29625   
         C15       1.0000    0.30330   0.53920   0.23284   Biso      1.000     C          -0.306906           
         C16       1.0000    0.07860   0.33240   0.99890   Biso      1.000     C          -0.528884           
         C17       1.0000    0.30065   0.41222   0.20138   Biso      1.000     C          -0.127798           
         C18       1.0000    0.13690   0.66821   0.36168   Biso      1.000     C          0.295385  
         C19       1.0000    0.48400   0.59730   0.61840   Biso      1.000     C          -0.530049           
         C20       1.0000    0.61060   0.64350   0.73373   Biso      1.000     C          0.22125300000000003           
         C21       1.0000    0.69935   0.58778   0.79862   Biso      1.000     C          -0.12779200000000002          
         C22       1.0000    0.35645   0.15150   0.51203   Biso      1.000     C          -0.127552           
         C23       1.0000    0.70382   0.09003   0.81879   Biso      1.000     C          -0.146406           
         C24       1.0000    0.98338   0.01450   0.15123   Biso      1.000     C          -0.117665           
         C25       1.0000    0.16380   0.21390   0.66083   Biso      1.000     C          -0.529688           
         C26       1.0000    0.03329   0.18030   0.55009   Biso      1.000     C          0.213956  
         C27       1.0000    0.90046   0.17551   0.52941   Biso      1.000     C          -0.127693           
         C28       1.0000    0.81948   0.14180   0.41346   Biso      1.000     C          0.22326700000000002           
         C29       1.0000    0.66760   0.12350   0.33870   Biso      1.000     C          -0.5264   
         C30       1.0000    0.85480   0.19950   0.61615   Biso      1.000     C          -0.310813           
         C31       1.0000    0.86310   0.33179   0.63832   Biso      1.000     C          0.295381  
         C32       1.0000    0.94610   0.43500   0.61410   Biso      1.000     C          -0.222572           
         C33       1.0000    0.94870   0.55180   0.63960   Biso      1.000     C          -0.024905           
         C34       1.0000    0.86950   0.56480   0.69040   Biso      1.000     C          -0.21005700000000002          
         C35       1.0000    0.78941   0.45985   0.71349   Biso      1.000     C          0.296249  
         C36       1.0000    0.69670   0.46080   0.76716   Biso      1.000     C          -0.306906           
         C37       1.0000    0.92140   0.66760   0.00110   Biso      1.000     C          -0.528884           
         C38       1.0000    0.79754   0.67670   0.89971   Biso      1.000     C          0.21581799999999998           
         C39       1.0000    0.38940   0.35650   0.26627   Biso      1.000     C          0.22125999999999998           
         C40       1.0000    0.51600   0.40270   0.38160   Biso      1.000     C          -0.53005  
         Cu1       1.0000    0.82917   0.87972   0.59108   Biso      1.000     Cu          0.26519699999999996           
         Cu2       1.0000    0.13897   0.04955   0.00474   Biso      1.000     Cu          0.239605  
         Cu3       1.0000    0.35496   0.81607   0.29581   Biso      1.000     Cu          0.292545  
         Cu4       1.0000    0.17083   0.12028   0.40892   Biso      1.000     Cu          0.265198  
         Cu5       1.0000    0.86103   0.95045   0.99526   Biso      1.000     Cu          0.239619  
         Cu6       1.0000    0.64504   0.18393   0.70419   Biso      1.000     Cu          0.292544  
         H1        1.0000    0.75870   0.14150   0.59020   Biso      1.000     H          0.133455  
         H2        1.0000    0.33980   0.83420   0.72550   Biso      1.000     H          0.172983  
         H3        1.0000    0.24130   0.85850   0.40980   Biso      1.000     H          0.133455  
         H4        1.0000    0.08770   0.81980   0.31160   Biso      1.000     H          0.153121  
         H5        1.0000    0.00010   0.57460   0.41920   Biso      1.000     H          0.12286400000000001           
         H6        1.0000    0.99660   0.37790   0.37720   Biso      1.000     H          0.09904199999999999           
         H7        1.0000    0.91230   0.18020   0.68840   Biso      1.000     H          0.153122  
         H8        1.0000    0.27570   0.57600   0.16390   Biso      1.000     H          0.136723  
         H9        1.0000    0.39920   0.59330   0.28600   Biso      1.000     H          0.142219  
         H10       1.0000    0.99440   0.28590   0.00400   Biso      1.000     H          0.179944  
         H11       1.0000    0.09000   0.41930   0.99890   Biso      1.000     H          0.167317  
         H12       1.0000    0.36490   0.84210   0.61690   Biso      1.000     H          0.178635  
         H13       1.0000    0.12900   0.89490   0.70270   Biso      1.000     H          0.299749  
         H14       1.0000    0.38490   0.19010   0.22810   Biso      1.000     H          0.29573699999999997           
         H15       1.0000    0.48970   0.42010   0.43840   Biso      1.000     H          0.175901  
         H16       1.0000    0.58460   0.47850   0.37960   Biso      1.000     H          0.174779  
         H17       1.0000    0.55510   0.33930   0.40100   Biso      1.000     H          0.17438299999999998           
         H18       1.0000    0.07220   0.29780   0.92910   Biso      1.000     H          0.17296199999999998           
         H19       1.0000    0.38870   0.96500   0.68890   Biso      1.000     H          0.176406  
         H20       1.0000    0.12920   0.35630   0.29130   Biso      1.000     H          0.123551  
         H21       1.0000    0.85700   0.83240   0.28430   Biso      1.000     H          0.175963  
         H22       1.0000    0.66020   0.16580   0.27450   Biso      1.000     H          0.172983  
         H23       1.0000    0.63510   0.15790   0.38310   Biso      1.000     H          0.178635  
         H24       1.0000    0.61130   0.03500   0.31110   Biso      1.000     H          0.176406  
         H25       1.0000    0.76820   0.80680   0.35110   Biso      1.000     H          0.171103  
         H26       1.0000    0.14300   0.16760   0.71570   Biso      1.000     H          0.175963  
         H27       1.0000    0.20080   0.30280   0.68940   Biso      1.000     H          0.171464  
         H28       1.0000    0.99990   0.42540   0.58080   Biso      1.000     H          0.12286400000000001           
         H29       1.0000    0.00340   0.62210   0.62280   Biso      1.000     H          0.09904199999999999           
         H30       1.0000    0.87080   0.64370   0.70870   Biso      1.000     H          0.123552  
         H31       1.0000    0.72430   0.42400   0.83610   Biso      1.000     H          0.136723  
         H32       1.0000    0.23180   0.19320   0.64890   Biso      1.000     H          0.171103  
         H33       1.0000    0.44490   0.66070   0.59900   Biso      1.000     H          0.17438299999999998           
         H34       1.0000    0.92780   0.70220   0.07090   Biso      1.000     H          0.17296199999999998           
         H35       1.0000    0.91000   0.58070   0.00110   Biso      1.000     H          0.167317  
         H36       1.0000    0.00560   0.71410   0.99600   Biso      1.000     H          0.179944  
         H37       1.0000    0.87100   0.10510   0.29730   Biso      1.000     H          0.29975100000000005           
         H38       1.0000    0.61510   0.80990   0.77190   Biso      1.000     H          0.29573699999999997           
         H39       1.0000    0.51030   0.57990   0.56160   Biso      1.000     H          0.175901  
         H40       1.0000    0.41540   0.52150   0.62040   Biso      1.000     H          0.174778  
         H41       1.0000    0.79920   0.69720   0.31060   Biso      1.000     H          0.171463  
         H42       1.0000    0.60080   0.40670   0.71400   Biso      1.000     H          0.142219  
         N1        1.0000    0.78515   0.34412   0.68727   Biso      1.000     N          -0.313719           
         N2        1.0000    0.90003   0.12711   0.36952   Biso      1.000     N          -0.193896           
         N3        1.0000    0.74494   0.03235   0.88592   Biso      1.000     N          -0.30557  
         N4        1.0000    0.05242   0.05570   0.24655   Biso      1.000     N          -0.317253           
         N5        1.0000    0.65518   0.75726   0.79497   Biso      1.000     N          -0.198975           
         N6        1.0000    0.03225   0.15077   0.45126   Biso      1.000     N          -0.20032  
         N7        1.0000    0.76990   0.78041   0.89690   Biso      1.000     N          -0.167533           
         N8        1.0000    0.21485   0.65588   0.31273   Biso      1.000     N          -0.313721           
         N9        1.0000    0.25506   0.96765   0.11408   Biso      1.000     N          -0.30556700000000003          
         N10       1.0000    0.94758   0.94430   0.75345   Biso      1.000     N          -0.317253           
         N11       1.0000    0.96775   0.84923   0.54874   Biso      1.000     N          -0.20034000000000002          
         N12       1.0000    0.09997   0.87289   0.63048   Biso      1.000     N          -0.193875           
         N13       1.0000    0.34482   0.24274   0.20503   Biso      1.000     N          -0.198975           
         N14       1.0000    0.23010   0.21959   0.10310   Biso      1.000     N          -0.16752899999999998          
         N15       1.0000    0.53290   0.83358   0.41946   Biso      1.000     N          -0.326939           
         N16       1.0000    0.46710   0.16642   0.58054   Biso      1.000     N          -0.326939 