
##########################################################################
#               Crystallographic Information Format file
#               Produced by PyCifRW module
#
#  This is a CIF file.  CIF has been adopted by the International
#  Union of Crystallography as the standard for data archiving and
#  transmission.
#
#  For information on this file format, follow the CIF links at
#  http://www.iucr.org
##########################################################################

data_image0

_cell_length_a                          11.4507
_cell_length_b                          11.6026
_cell_length_c                          13.2025
_cell_angle_alpha                       65.36
_cell_angle_beta                        71.368
_cell_angle_gamma                       71.461
_symmetry_space_group_name_H-M          'P 1'
_symmetry_int_tables_number             1
loop_
  _symmetry_equiv_pos_as_xyz
         'x, y, z' 
loop_
  _atom_site_label
  _atom_site_occupancy
  _atom_site_fract_x
  _atom_site_fract_y
  _atom_site_fract_z
  _atom_site_thermal_displace_type
  _atom_site_B_iso_or_equiv
  _atom_site_type_symbol
  _atom_site_charge
         C1        1.0000    0.51920   0.17970   0.34780   Biso      1.000     C          -0.120968           
         C2        1.0000    0.34870   0.84260   0.01090   Biso      1.000     C          -0.131951           
         C3        1.0000    0.89110   0.87700   0.11030   Biso      1.000     C          -0.526193           
         C4        1.0000    0.84410   0.88640   0.22630   Biso      1.000     C          0.22406399999999999           
         C5        1.0000    0.90110   0.90900   0.29130   Biso      1.000     C          -0.13597599999999999          
         C6        1.0000    0.81220   0.90490   0.39390   Biso      1.000     C          0.22931500000000002           
         C7        1.0000    0.82170   0.92560   0.49330   Biso      1.000     C          -0.532802           
         C8        1.0000    0.03070   0.93740   0.25700   Biso      1.000     C          -0.310566           
         C9        1.0000    0.03600   0.07750   0.20120   Biso      1.000     C          0.29816   
         C10       1.0000    0.72460   0.50150   0.83890   Biso      1.000     C          -0.527875           
         C11       1.0000    0.93380   0.17750   0.17410   Biso      1.000     C          -0.206463           
         C12       1.0000    0.06680   0.32720   0.09790   Biso      1.000     C          -0.226575           
         C13       1.0000    0.16680   0.22490   0.12640   Biso      1.000     C          0.29762   
         C14       1.0000    0.29830   0.24140   0.10830   Biso      1.000     C          -0.310691           
         C15       1.0000    0.39870   0.32810   0.83240   Biso      1.000     C          -0.526876           
         C16       1.0000    0.37010   0.40370   0.90920   Biso      1.000     C          0.22836700000000001           
         C17       1.0000    0.32580   0.37130   0.02540   Biso      1.000     C          -0.132166           
         C18       1.0000    0.31870   0.48080   0.04870   Biso      1.000     C          0.21767399999999998           
         C19       1.0000    0.27540   0.49850   0.16110   Biso      1.000     C          -0.527875           
         C20       1.0000    0.94960   0.30230   0.12240   Biso      1.000     C          -0.020216           
         C21       1.0000    0.48080   0.82030   0.65220   Biso      1.000     C          -0.120968           
         C22       1.0000    0.65130   0.15740   0.98910   Biso      1.000     C          -0.13195199999999999          
         C23       1.0000    0.06620   0.82250   0.82590   Biso      1.000     C          -0.206465           
         C24       1.0000    0.68130   0.51920   0.95130   Biso      1.000     C          0.21767399999999998           
         C25       1.0000    0.67420   0.62870   0.97460   Biso      1.000     C          -0.132165           
         C26       1.0000    0.62990   0.59630   0.09080   Biso      1.000     C          0.22836700000000001           
         C27       1.0000    0.60130   0.67190   0.16760   Biso      1.000     C          -0.526876           
         C28       1.0000    0.70170   0.75860   0.89170   Biso      1.000     C          -0.310692           
         C29       1.0000    0.83320   0.77510   0.87360   Biso      1.000     C          0.297619  
         C30       1.0000    0.93320   0.67280   0.90210   Biso      1.000     C          -0.22657399999999997          
         C31       1.0000    0.05040   0.69770   0.87760   Biso      1.000     C          -0.020215           
         C32       1.0000    0.60060   0.09670   0.69020   Biso      1.000     C          -0.148802           
         C33       1.0000    0.39940   0.90330   0.30980   Biso      1.000     C          -0.148802           
         C34       1.0000    0.96930   0.06260   0.74300   Biso      1.000     C          -0.310566           
         C35       1.0000    0.17830   0.07440   0.50670   Biso      1.000     C          -0.532802           
         C36       1.0000    0.18780   0.09510   0.60610   Biso      1.000     C          0.229316  
         C37       1.0000    0.09890   0.09100   0.70870   Biso      1.000     C          -0.135981           
         C38       1.0000    0.15590   0.11360   0.77370   Biso      1.000     C          0.22406900000000002           
         C39       1.0000    0.10890   0.12300   0.88970   Biso      1.000     C          -0.526193           
         C40       1.0000    0.96400   0.92250   0.79880   Biso      1.000     C          0.298162  
         Cu1       1.0000    0.69019   0.04833   0.80240   Biso      1.000     Cu          0.297703  
         Cu2       1.0000    0.46381   0.13632   0.50565   Biso      1.000     Cu          0.241495  
         Cu3       1.0000    0.61797   0.24402   0.08878   Biso      1.000     Cu          0.269968  
         Cu4       1.0000    0.38203   0.75598   0.91122   Biso      1.000     Cu          0.269967  
         Cu5       1.0000    0.53619   0.86368   0.49435   Biso      1.000     Cu          0.24149299999999999           
         Cu6       1.0000    0.30981   0.95167   0.19760   Biso      1.000     Cu          0.2977    
         H1        1.0000    0.68760   0.77220   0.81860   Biso      1.000     H          0.151745  
         H2        1.0000    0.64190   0.82580   0.91870   Biso      1.000     H          0.13156099999999998           
         H3        1.0000    0.52360   0.65790   0.22230   Biso      1.000     H          0.17955   
         H4        1.0000    0.59350   0.76270   0.12290   Biso      1.000     H          0.182329  
         H5        1.0000    0.66850   0.64340   0.20700   Biso      1.000     H          0.169782  
         H6        1.0000    0.81350   0.49910   0.81200   Biso      1.000     H          0.172463  
         H7        1.0000    0.67990   0.57240   0.78510   Biso      1.000     H          0.175582  
         H8        1.0000    0.70850   0.42140   0.84710   Biso      1.000     H          0.170678  
         H9        1.0000    0.31240   0.22780   0.18140   Biso      1.000     H          0.151745  
         H10       1.0000    0.88120   0.37030   0.10390   Biso      1.000     H          0.10127699999999999           
         H11       1.0000    0.29150   0.57860   0.15290   Biso      1.000     H          0.170678  
         H12       1.0000    0.85450   0.15990   0.19100   Biso      1.000     H          0.121873  
         H13       1.0000    0.06560   0.90140   0.32450   Biso      1.000     H          0.138351  
         H14       1.0000    0.08450   0.89270   0.20510   Biso      1.000     H          0.141405  
         H15       1.0000    0.76510   0.00510   0.49870   Biso      1.000     H          0.180331  
         H16       1.0000    0.90660   0.93070   0.48460   Biso      1.000     H          0.16788   
         H17       1.0000    0.79960   0.85460   0.56140   Biso      1.000     H          0.17536600000000002           
         H18       1.0000    0.41200   0.56850   0.79840   Biso      1.000     H          0.29785900000000004           
         H19       1.0000    0.07860   0.41200   0.06260   Biso      1.000     H          0.121179  
         H20       1.0000    0.92140   0.58800   0.93740   Biso      1.000     H          0.121179  
         H21       1.0000    0.14550   0.84010   0.80900   Biso      1.000     H          0.121873  
         H22       1.0000    0.67520   0.85730   0.26470   Biso      1.000     H          0.297029  
         H23       1.0000    0.32010   0.42760   0.21490   Biso      1.000     H          0.175582  
         H24       1.0000    0.84930   0.95220   0.05710   Biso      1.000     H          0.176876  
         H25       1.0000    0.98040   0.87220   0.08700   Biso      1.000     H          0.175422  
         H26       1.0000    0.18650   0.50090   0.18800   Biso      1.000     H          0.172463  
         H27       1.0000    0.33150   0.35660   0.79300   Biso      1.000     H          0.169781  
         H28       1.0000    0.40650   0.23730   0.87710   Biso      1.000     H          0.182329  
         H29       1.0000    0.47640   0.34210   0.77770   Biso      1.000     H          0.179551  
         H30       1.0000    0.35810   0.17420   0.08130   Biso      1.000     H          0.13156099999999998           
         H31       1.0000    0.11880   0.62970   0.89610   Biso      1.000     H          0.10127699999999999           
         H32       1.0000    0.15070   0.04780   0.94290   Biso      1.000     H          0.176876  
         H33       1.0000    0.12630   0.19960   0.88800   Biso      1.000     H          0.170072  
         H34       1.0000    0.32480   0.14270   0.73530   Biso      1.000     H          0.297029  
         H35       1.0000    0.58800   0.43150   0.20160   Biso      1.000     H          0.29785900000000004           
         H36       1.0000    0.20040   0.14540   0.43860   Biso      1.000     H          0.17536600000000002           
         H37       1.0000    0.09340   0.06930   0.51540   Biso      1.000     H          0.16788   
         H38       1.0000    0.23490   0.99490   0.50130   Biso      1.000     H          0.180331  
         H39       1.0000    0.91550   0.10730   0.79490   Biso      1.000     H          0.141405  
         H40       1.0000    0.93440   0.09860   0.67550   Biso      1.000     H          0.138351  
         H41       1.0000    0.01960   0.12780   0.91300   Biso      1.000     H          0.175422  
         H42       1.0000    0.87370   0.80040   0.11200   Biso      1.000     H          0.170072  
         N1        1.0000    0.55490   0.20730   0.25100   Biso      1.000     N          -0.31803000000000003          
         N2        1.0000    0.27070   0.12790   0.71220   Biso      1.000     N          -0.198626           
         N3        1.0000    0.84830   0.89730   0.82260   Biso      1.000     N          -0.31522100000000003          
         N4        1.0000    0.64580   0.42430   0.04610   Biso      1.000     N          -0.197525           
         N5        1.0000    0.29380   0.11670   0.60890   Biso      1.000     N          -0.178395           
         N6        1.0000    0.61450   0.47390   0.13070   Biso      1.000     N          -0.203786           
         N7        1.0000    0.33190   0.89000   0.07690   Biso      1.000     N          -0.331328           
         N8        1.0000    0.45380   0.87730   0.37860   Biso      1.000     N          -0.30194499999999996          
         N9        1.0000    0.44510   0.79270   0.74900   Biso      1.000     N          -0.318029           
         N10       1.0000    0.35420   0.57570   0.95390   Biso      1.000     N          -0.197524           
         N11       1.0000    0.38550   0.52610   0.86930   Biso      1.000     N          -0.203787           
         N12       1.0000    0.15170   0.10270   0.17740   Biso      1.000     N          -0.315219           
         N13       1.0000    0.72930   0.87210   0.28780   Biso      1.000     N          -0.198625           
         N14       1.0000    0.70620   0.88330   0.39110   Biso      1.000     N          -0.178393           
         N15       1.0000    0.54620   0.12270   0.62140   Biso      1.000     N          -0.301946           
         N16       1.0000    0.66810   0.11000   0.92310   Biso      1.000     N          -0.331329 