
##########################################################################
#               Crystallographic Information Format file
#               Produced by PyCifRW module
#
#  This is a CIF file.  CIF has been adopted by the International
#  Union of Crystallography as the standard for data archiving and
#  transmission.
#
#  For information on this file format, follow the CIF links at
#  http://www.iucr.org
##########################################################################

data_image0

_cell_length_a                          11.312
_cell_length_b                          11.5152
_cell_length_c                          12.6953
_cell_angle_alpha                       88.503
_cell_angle_beta                        65.829
_cell_angle_gamma                       68.347
_symmetry_space_group_name_H-M          'P 1'
_symmetry_int_tables_number             1
loop_
  _symmetry_equiv_pos_as_xyz
         'x, y, z' 
loop_
  _atom_site_label
  _atom_site_occupancy
  _atom_site_fract_x
  _atom_site_fract_y
  _atom_site_fract_z
  _atom_site_thermal_displace_type
  _atom_site_B_iso_or_equiv
  _atom_site_type_symbol
  _atom_site_charge
         C1        1.0000    0.78840   0.33120   0.10160   Biso      1.000     C          0.21860500000000002           
         C2        1.0000    0.69790   0.91348   0.17254   Biso      1.000     C          -0.154661           
         C3        1.0000    0.99300   0.98898   0.85376   Biso      1.000     C          -0.124421           
         C4        1.0000    0.16880   0.78970   0.33640   Biso      1.000     C          -0.5100399999999999           
         C5        1.0000    0.03770   0.81908   0.44675   Biso      1.000     C          0.21289499999999997           
         C6        1.0000    0.90760   0.82150   0.46080   Biso      1.000     C          -0.13003199999999998          
         C7        1.0000    0.82210   0.85381   0.57970   Biso      1.000     C          0.218718  
         C8        1.0000    0.67060   0.86800   0.65010   Biso      1.000     C          -0.508022           
         C9        1.0000    0.35640   0.85018   0.48843   Biso      1.000     C          -0.12892699999999999          
         C10       1.0000    0.86420   0.79780   0.36870   Biso      1.000     C          -0.296755           
         C11       1.0000    0.95920   0.56150   0.37510   Biso      1.000     C          -0.22233899999999998          
         C12       1.0000    0.95880   0.44360   0.35460   Biso      1.000     C          -0.028462           
         C13       1.0000    0.87290   0.43420   0.30730   Biso      1.000     C          -0.208048           
         C14       1.0000    0.78520   0.54187   0.28490   Biso      1.000     C          0.290716  
         C15       1.0000    0.68320   0.54470   0.23580   Biso      1.000     C          -0.296642           
         C16       1.0000    0.91390   0.34010   0.00500   Biso      1.000     C          -0.506319           
         C17       1.0000    0.68800   0.41818   0.20220   Biso      1.000     C          -0.130625           
         C18       1.0000    0.87130   0.66530   0.35030   Biso      1.000     C          0.293117  
         C19       1.0000    0.53390   0.59160   0.62240   Biso      1.000     C          -0.5121359999999999           
         C20       1.0000    0.40550   0.63630   0.73450   Biso      1.000     C          0.21194699999999997           
         C21       1.0000    0.31200   0.58182   0.79780   Biso      1.000     C          -0.130626           
         C22       1.0000    0.64360   0.14982   0.51157   Biso      1.000     C          -0.128931           
         C23       1.0000    0.30210   0.08652   0.82746   Biso      1.000     C          -0.154665           
         C24       1.0000    0.00700   0.01102   0.14624   Biso      1.000     C          -0.12441500000000001          
         C25       1.0000    0.83120   0.21030   0.66360   Biso      1.000     C          -0.5100399999999999           
         C26       1.0000    0.96230   0.18092   0.55325   Biso      1.000     C          0.212894  
         C27       1.0000    0.09240   0.17850   0.53920   Biso      1.000     C          -0.13003199999999998          
         C28       1.0000    0.17790   0.14619   0.42030   Biso      1.000     C          0.218719  
         C29       1.0000    0.32940   0.13200   0.34990   Biso      1.000     C          -0.508022           
         C30       1.0000    0.13580   0.20220   0.63130   Biso      1.000     C          -0.296755           
         C31       1.0000    0.12870   0.33470   0.64970   Biso      1.000     C          0.293108  
         C32       1.0000    0.04080   0.43850   0.62490   Biso      1.000     C          -0.222329           
         C33       1.0000    0.04120   0.55640   0.64540   Biso      1.000     C          -0.028463           
         C34       1.0000    0.12710   0.56580   0.69270   Biso      1.000     C          -0.208048           
         C35       1.0000    0.21480   0.45813   0.71510   Biso      1.000     C          0.290715  
         C36       1.0000    0.31680   0.45530   0.76420   Biso      1.000     C          -0.296642           
         C37       1.0000    0.08610   0.65990   0.99500   Biso      1.000     C          -0.506319           
         C38       1.0000    0.21160   0.66880   0.89840   Biso      1.000     C          0.218604  
         C39       1.0000    0.59450   0.36370   0.26550   Biso      1.000     C          0.211948  
         C40       1.0000    0.46610   0.40840   0.37760   Biso      1.000     C          -0.5121359999999999           
         Cu1       1.0000    0.17140   0.88051   0.59397   Biso      1.000     Cu          0.272169  
         Cu2       1.0000    0.86536   0.05819   0.00869   Biso      1.000     Cu          0.252427  
         Cu3       1.0000    0.63976   0.81806   0.28921   Biso      1.000     Cu          0.294053  
         Cu4       1.0000    0.82860   0.11949   0.40603   Biso      1.000     Cu          0.27217399999999997           
         Cu5       1.0000    0.13464   0.94181   0.99131   Biso      1.000     Cu          0.252415  
         Cu6       1.0000    0.36024   0.18194   0.71079   Biso      1.000     Cu          0.294054  
         H1        1.0000    0.07460   0.18460   0.70620   Biso      1.000     H          0.15207   
         H2        1.0000    0.61800   0.94720   0.70460   Biso      1.000     H          0.170327  
         H3        1.0000    0.92540   0.81540   0.29380   Biso      1.000     H          0.15207   
         H4        1.0000    0.76640   0.85850   0.39010   Biso      1.000     H          0.126225  
         H5        1.0000    0.01980   0.56990   0.40590   Biso      1.000     H          0.12133499999999998           
         H6        1.0000    0.01710   0.37080   0.37320   Biso      1.000     H          0.0979    
         H7        1.0000    0.23360   0.14150   0.60990   Biso      1.000     H          0.126225  
         H8        1.0000    0.58640   0.59610   0.29450   Biso      1.000     H          0.137711  
         H9        1.0000    0.70180   0.58800   0.16600   Biso      1.000     H          0.135298  
         H10       1.0000    0.96250   0.26440   0.94640   Biso      1.000     H          0.16552   
         H11       1.0000    0.88400   0.41510   0.96890   Biso      1.000     H          0.163778  
         H12       1.0000    0.62710   0.86910   0.59720   Biso      1.000     H          0.181018  
         H13       1.0000    0.86720   0.89220   0.70450   Biso      1.000     H          0.301129  
         H14       1.0000    0.60030   0.19650   0.22290   Biso      1.000     H          0.295454  
         H15       1.0000    0.38400   0.41860   0.36370   Biso      1.000     H          0.16455   
         H16       1.0000    0.45330   0.48970   0.41220   Biso      1.000     H          0.174523  
         H17       1.0000    0.47610   0.34650   0.43110   Biso      1.000     H          0.17460799999999999           
         H18       1.0000    0.97790   0.34670   0.03600   Biso      1.000     H          0.17033299999999998           
         H19       1.0000    0.66920   0.79680   0.69390   Biso      1.000     H          0.162155  
         H20       1.0000    0.87370   0.35410   0.28990   Biso      1.000     H          0.12037300000000001           
         H21       1.0000    0.14660   0.84120   0.27910   Biso      1.000     H          0.170158  
         H22       1.0000    0.38200   0.05280   0.29540   Biso      1.000     H          0.170327  
         H23       1.0000    0.37290   0.13090   0.40280   Biso      1.000     H          0.181018  
         H24       1.0000    0.33080   0.20320   0.30610   Biso      1.000     H          0.162155  
         H25       1.0000    0.20790   0.70000   0.30510   Biso      1.000     H          0.167009  
         H26       1.0000    0.85340   0.15880   0.72090   Biso      1.000     H          0.170159  
         H27       1.0000    0.76200   0.19140   0.64760   Biso      1.000     H          0.164459  
         H28       1.0000    0.98020   0.43010   0.59410   Biso      1.000     H          0.121334  
         H29       1.0000    0.98290   0.62920   0.62680   Biso      1.000     H          0.0979    
         H30       1.0000    0.12630   0.64590   0.71010   Biso      1.000     H          0.12037300000000001           
         H31       1.0000    0.41360   0.40390   0.70550   Biso      1.000     H          0.137711  
         H32       1.0000    0.79210   0.30000   0.69490   Biso      1.000     H          0.167009  
         H33       1.0000    0.52390   0.65350   0.56890   Biso      1.000     H          0.17460799999999999           
         H34       1.0000    0.02210   0.65330   0.96400   Biso      1.000     H          0.17033299999999998           
         H35       1.0000    0.11600   0.58490   0.03110   Biso      1.000     H          0.163778  
         H36       1.0000    0.03750   0.73560   0.05360   Biso      1.000     H          0.16552   
         H37       1.0000    0.13280   0.10780   0.29550   Biso      1.000     H          0.30113   
         H38       1.0000    0.39970   0.80350   0.77710   Biso      1.000     H          0.295454  
         H39       1.0000    0.61600   0.58140   0.63630   Biso      1.000     H          0.16455   
         H40       1.0000    0.54670   0.51030   0.58780   Biso      1.000     H          0.174523  
         H41       1.0000    0.23800   0.80860   0.35240   Biso      1.000     H          0.164459  
         H42       1.0000    0.29820   0.41200   0.83400   Biso      1.000     H          0.135298  
         N1        1.0000    0.21531   0.34428   0.69300   Biso      1.000     N          -0.309682           
         N2        1.0000    0.10101   0.12964   0.37094   Biso      1.000     N          -0.18670499999999998          
         N3        1.0000    0.25937   0.02602   0.89437   Biso      1.000     N          -0.309681           
         N4        1.0000    0.94040   0.05413   0.24308   Biso      1.000     N          -0.31600500000000004          
         N5        1.0000    0.35833   0.74984   0.79804   Biso      1.000     N          -0.196548           
         N6        1.0000    0.96688   0.15039   0.45053   Biso      1.000     N          -0.202689           
         N7        1.0000    0.23978   0.77149   0.89787   Biso      1.000     N          -0.16966099999999998          
         N8        1.0000    0.78469   0.65572   0.30700   Biso      1.000     N          -0.309683           
         N9        1.0000    0.74063   0.97398   0.10563   Biso      1.000     N          -0.309687           
         N10       1.0000    0.05960   0.94587   0.75692   Biso      1.000     N          -0.316    
         N11       1.0000    0.03312   0.84961   0.54947   Biso      1.000     N          -0.202699           
         N12       1.0000    0.89899   0.87036   0.62906   Biso      1.000     N          -0.186695           
         N13       1.0000    0.64167   0.25016   0.20196   Biso      1.000     N          -0.196547           
         N14       1.0000    0.76022   0.22851   0.10213   Biso      1.000     N          -0.169666           
         N15       1.0000    0.46610   0.83611   0.41813   Biso      1.000     N          -0.33217199999999997          
         N16       1.0000    0.53390   0.16389   0.58187   Biso      1.000     N          -0.33217399999999997 