
##########################################################################
#               Crystallographic Information Format file
#               Produced by PyCifRW module
#
#  This is a CIF file.  CIF has been adopted by the International
#  Union of Crystallography as the standard for data archiving and
#  transmission.
#
#  For information on this file format, follow the CIF links at
#  http://www.iucr.org
##########################################################################

data_image0

_cell_length_a                          7.977
_cell_length_b                          9.2821
_cell_length_c                          15.8519
_cell_angle_alpha                       85.3868
_cell_angle_beta                        79.212
_cell_angle_gamma                       64.5516
_symmetry_space_group_name_H-M          'P 1'
_symmetry_int_tables_number             1
loop_
  _symmetry_equiv_pos_as_xyz
         'x, y, z' 
loop_
  _atom_site_label
  _atom_site_occupancy
  _atom_site_fract_x
  _atom_site_fract_y
  _atom_site_fract_z
  _atom_site_thermal_displace_type
  _atom_site_B_iso_or_equiv
  _atom_site_type_symbol
  _atom_site_charge
         C1        1.0000    0.86910   0.76620   0.63670   Biso      1.000     C          0.571287  
         C2        1.0000    0.84160   0.39280   0.36880   Biso      1.000     C          0.172224  
         C3        1.0000    0.83130   0.91540   0.37580   Biso      1.000     C          0.627749  
         C4        1.0000    0.20920   0.19000   0.99860   Biso      1.000     C          0.568121  
         C5        1.0000    0.97630   0.12440   0.94380   Biso      1.000     C          -0.137933           
         C6        1.0000    0.12540   0.96320   0.05810   Biso      1.000     C          -0.06425299999999999          
         C7        1.0000    0.10160   0.09080   0.00120   Biso      1.000     C          -0.041032           
         C8        1.0000    0.63530   0.23380   0.13670   Biso      1.000     C          0.566921  
         C9        1.0000    0.25330   0.91540   0.12420   Biso      1.000     C          0.626238  
         C10       1.0000    0.39920   0.81000   0.49860   Biso      1.000     C          0.568929  
         C11       1.0000    0.10070   0.87560   0.44380   Biso      1.000     C          -0.138505           
         C12       1.0000    0.08860   0.03680   0.55810   Biso      1.000     C          -0.065035           
         C13       1.0000    0.19240   0.90920   0.50120   Biso      1.000     C          -0.040094           
         C14       1.0000    0.15840   0.60720   0.63120   Biso      1.000     C          0.172224  
         C15       1.0000    0.16870   0.08460   0.62420   Biso      1.000     C          0.627749  
         C16       1.0000    0.79080   0.81000   0.00140   Biso      1.000     C          0.568121  
         C17       1.0000    0.02370   0.87560   0.05620   Biso      1.000     C          -0.137932           
         C18       1.0000    0.87460   0.03680   0.94190   Biso      1.000     C          -0.06425299999999999          
         C19       1.0000    0.89840   0.90920   0.99880   Biso      1.000     C          -0.041033           
         C20       1.0000    0.36470   0.76620   0.86330   Biso      1.000     C          0.566921  
         C21       1.0000    0.23440   0.60720   0.86880   Biso      1.000     C          0.169296  
         C22       1.0000    0.74670   0.08460   0.87580   Biso      1.000     C          0.626238  
         C23       1.0000    0.13090   0.23380   0.36330   Biso      1.000     C          0.571286  
         C24       1.0000    0.80760   0.09080   0.49880   Biso      1.000     C          -0.040094           
         C25       1.0000    0.76560   0.39280   0.13120   Biso      1.000     C          0.169297  
         C26       1.0000    0.89930   0.12440   0.55620   Biso      1.000     C          -0.13850099999999999          
         C27       1.0000    0.60080   0.19000   0.50140   Biso      1.000     C          0.568929  
         C28       1.0000    0.91140   0.96320   0.44190   Biso      1.000     C          -0.06503099999999999          
         H1        1.0000    0.83020   0.20880   0.59450   Biso      1.000     H          0.131328  
         H2        1.0000    0.31690   0.04500   0.30060   Biso      1.000     H          0.36546799999999996           
         H3        1.0000    0.71870   0.44080   0.35800   Biso      1.000     H          0.116503  
         H4        1.0000    0.96100   0.20880   0.90550   Biso      1.000     H          0.13064   
         H5        1.0000    0.50960   0.09640   0.13480   Biso      1.000     H          0.369329  
         H6        1.0000    0.63810   0.04500   0.19940   Biso      1.000     H          0.365644  
         H7        1.0000    0.84050   0.44080   0.14200   Biso      1.000     H          0.11767899999999999           
         H8        1.0000    0.39400   0.09640   0.36520   Biso      1.000     H          0.371515  
         H9        1.0000    0.60600   0.90360   0.63480   Biso      1.000     H          0.371515  
         H10       1.0000    0.68310   0.95500   0.69940   Biso      1.000     H          0.36546799999999996           
         H11       1.0000    0.28130   0.55920   0.64200   Biso      1.000     H          0.116503  
         H12       1.0000    0.03900   0.79120   0.09450   Biso      1.000     H          0.13064   
         H13       1.0000    0.49040   0.90360   0.86520   Biso      1.000     H          0.369329  
         H14       1.0000    0.36190   0.95500   0.80060   Biso      1.000     H          0.365645  
         H15       1.0000    0.15950   0.55920   0.85800   Biso      1.000     H          0.11767899999999999           
         H16       1.0000    0.16980   0.79120   0.40550   Biso      1.000     H          0.131329  
         N1        1.0000    0.41140   0.89000   0.84020   Biso      1.000     N          -0.7338520000000001           
         N2        1.0000    0.69860   0.89000   0.65980   Biso      1.000     N          -0.736947           
         N3        1.0000    0.90960   0.65820   0.57630   Biso      1.000     N          -0.34466199999999997          
         N4        1.0000    0.65260   0.44540   0.07410   Biso      1.000     N          -0.186565           
         N5        1.0000    0.76120   0.26160   0.17230   Biso      1.000     N          -0.44188900000000003          
         N6        1.0000    0.58860   0.11000   0.15980   Biso      1.000     N          -0.7338520000000001           
         N7        1.0000    0.56780   0.34180   0.07630   Biso      1.000     N          -0.34257600000000005          
         N8        1.0000    0.90200   0.44540   0.42590   Biso      1.000     N          -0.186777           
         N9        1.0000    0.09800   0.55460   0.57410   Biso      1.000     N          -0.186773           
         N10       1.0000    0.30140   0.11000   0.34020   Biso      1.000     N          -0.736947           
         N11       1.0000    0.09040   0.34180   0.42370   Biso      1.000     N          -0.344658           
         N12       1.0000    0.43220   0.65820   0.92370   Biso      1.000     N          -0.342582           
         N13       1.0000    0.23880   0.73840   0.82770   Biso      1.000     N          -0.441888           
         N14       1.0000    0.34740   0.55460   0.92590   Biso      1.000     N          -0.186559           
         N15       1.0000    0.02280   0.73840   0.67230   Biso      1.000     N          -0.44487899999999997          
         N16       1.0000    0.97720   0.26160   0.32770   Biso      1.000     N          -0.44488  
         O1        1.0000    0.19110   0.98360   0.19670   Biso      1.000     O          -0.550963           
         O2        1.0000    0.41140   0.79860   0.10920   Biso      1.000     O          -0.529446           
         O3        1.0000    0.17470   0.01640   0.69670   Biso      1.000     O          -0.5518689999999999           
         O4        1.0000    0.67170   0.84420   0.95280   Biso      1.000     O          -0.544045           
         O5        1.0000    0.21000   0.20140   0.60920   Biso      1.000     O          -0.5302140000000001           
         O6        1.0000    0.48530   0.69440   0.44820   Biso      1.000     O          -0.541125           
         O7        1.0000    0.48410   0.84420   0.54720   Biso      1.000     O          -0.545585           
         O8        1.0000    0.17970   0.30560   0.94820   Biso      1.000     O          -0.541082           
         O9        1.0000    0.82030   0.69440   0.05180   Biso      1.000     O          -0.541082           
         O10       1.0000    0.32830   0.15580   0.04720   Biso      1.000     O          -0.544044           
         O11       1.0000    0.80890   0.01640   0.80330   Biso      1.000     O          -0.550963           
         O12       1.0000    0.79000   0.79860   0.39080   Biso      1.000     O          -0.5302140000000001           
         O13       1.0000    0.51470   0.30560   0.55180   Biso      1.000     O          -0.541125           
         O14       1.0000    0.51590   0.15580   0.45280   Biso      1.000     O          -0.545585           
         O15       1.0000    0.58860   0.20140   0.89080   Biso      1.000     O          -0.529446           
         O16       1.0000    0.82530   0.98360   0.30330   Biso      1.000     O          -0.5518689999999999           
         Zn1       1.0000    0.06447   0.87106   0.75000   Biso      1.000     Zn          0.817469  
         Zn2       1.0000    0.93553   0.12894   0.25000   Biso      1.000     Zn          0.817469  
         Zn3       1.0000    0.60180   0.64876   0.00431   Biso      1.000     Zn          0.791196  
         Zn4       1.0000    0.74944   0.64876   0.49569   Biso      1.000     Zn          0.791783  
         Zn5       1.0000    0.39820   0.35124   0.99569   Biso      1.000     Zn          0.791195  
         Zn6       1.0000    0.25056   0.35124   0.50431   Biso      1.000     Zn          0.791782 