
##########################################################################
#               Crystallographic Information Format file
#               Produced by PyCifRW module
#
#  This is a CIF file.  CIF has been adopted by the International
#  Union of Crystallography as the standard for data archiving and
#  transmission.
#
#  For information on this file format, follow the CIF links at
#  http://www.iucr.org
##########################################################################

data_image0

_cell_length_a                          12.699
_cell_length_b                          14.2602
_cell_length_c                          15.9462
_cell_angle_alpha                       96.8968
_cell_angle_beta                        113.465
_cell_angle_gamma                       90
_symmetry_space_group_name_H-M          'P 1'
_symmetry_int_tables_number             1
loop_
  _symmetry_equiv_pos_as_xyz
         'x, y, z' 
loop_
  _atom_site_label
  _atom_site_occupancy
  _atom_site_fract_x
  _atom_site_fract_y
  _atom_site_fract_z
  _atom_site_thermal_displace_type
  _atom_site_B_iso_or_equiv
  _atom_site_type_symbol
  _atom_site_charge
         C1        1.0000    0.55130   0.83110   0.28280   Biso      1.000     C          0.229115  
         C2        1.0000    0.66430   0.80680   0.46840   Biso      1.000     C          -0.102001           
         C3        1.0000    0.57100   0.74850   0.41160   Biso      1.000     C          -0.007926           
         C4        1.0000    0.34430   0.52390   0.20020   Biso      1.000     C          0.547137  
         C5        1.0000    0.31700   0.56480   0.11100   Biso      1.000     C          -0.004649           
         C6        1.0000    0.20790   0.59390   0.06060   Biso      1.000     C          -0.107008           
         C7        1.0000    0.18410   0.62350   0.97620   Biso      1.000     C          -0.14558  
         C8        1.0000    0.26570   0.62610   0.94080   Biso      1.000     C          0.06579   
         C9        1.0000    0.37490   0.59660   0.99280   Biso      1.000     C          -0.118188           
         C10       1.0000    0.39820   0.56470   0.07620   Biso      1.000     C          -0.107455           
         C11       1.0000    0.23620   0.65400   0.84720   Biso      1.000     C          0.084658  
         C12       1.0000    0.31590   0.56490   0.50780   Biso      1.000     C          0.589754  
         C13       1.0000    0.27440   0.62510   0.56840   Biso      1.000     C          0.005686  
         C14       1.0000    0.31220   0.61550   0.66120   Biso      1.000     C          -0.187198           
         C15       1.0000    0.53110   0.67210   0.45120   Biso      1.000     C          0.609522  
         C16       1.0000    0.26850   0.66890   0.71720   Biso      1.000     C          0.229419  
         C17       1.0000    0.15940   0.75150   0.58840   Biso      1.000     C          -0.007361           
         C18       1.0000    0.19590   0.69320   0.53160   Biso      1.000     C          -0.102036           
         C19       1.0000    0.07990   0.82790   0.54880   Biso      1.000     C          0.609627  
         C20       1.0000    0.14410   0.97610   0.79980   Biso      1.000     C          0.546246  
         C21       1.0000    0.20600   0.93520   0.88900   Biso      1.000     C          -0.003094           
         C22       1.0000    0.14730   0.90610   0.93940   Biso      1.000     C          -0.104138           
         C23       1.0000    0.20790   0.87650   0.02380   Biso      1.000     C          -0.143166           
         C24       1.0000    0.32490   0.87390   0.05920   Biso      1.000     C          0.062963  
         C25       1.0000    0.38210   0.90340   0.00720   Biso      1.000     C          -0.117172           
         C26       1.0000    0.32200   0.93530   0.92380   Biso      1.000     C          -0.108652           
         C27       1.0000    0.38900   0.84600   0.15280   Biso      1.000     C          0.080516  
         C28       1.0000    0.80810   0.93510   0.49220   Biso      1.000     C          0.588671  
         C29       1.0000    0.70600   0.87490   0.43160   Biso      1.000     C          0.005945  
         C30       1.0000    0.19100   0.73830   0.68140   Biso      1.000     C          -0.173194           
         C31       1.0000    0.65570   0.47610   0.79980   Biso      1.000     C          0.547121  
         C32       1.0000    0.68300   0.43520   0.88900   Biso      1.000     C          -0.00465  
         C33       1.0000    0.79210   0.40610   0.93940   Biso      1.000     C          -0.107007           
         C34       1.0000    0.46890   0.32790   0.54880   Biso      1.000     C          0.609522  
         C35       1.0000    0.33570   0.19320   0.53160   Biso      1.000     C          -0.102004           
         C36       1.0000    0.42900   0.25150   0.58840   Biso      1.000     C          -0.007924           
         C37       1.0000    0.49040   0.23830   0.68140   Biso      1.000     C          -0.17067  
         C38       1.0000    0.44870   0.16890   0.71720   Biso      1.000     C          0.229114  
         C39       1.0000    0.34900   0.11550   0.66120   Biso      1.000     C          -0.187717           
         C40       1.0000    0.29400   0.12510   0.56840   Biso      1.000     C          0.005946  
         C41       1.0000    0.19190   0.06490   0.50780   Biso      1.000     C          0.588669  
         C42       1.0000    0.61100   0.15400   0.84720   Biso      1.000     C          0.080518  
         C43       1.0000    0.67800   0.06470   0.07620   Biso      1.000     C          -0.108668           
         C44       1.0000    0.61790   0.09660   0.99280   Biso      1.000     C          -0.117164           
         C45       1.0000    0.67510   0.12610   0.94080   Biso      1.000     C          0.062949  
         C46       1.0000    0.79210   0.12350   0.97620   Biso      1.000     C          -0.143151           
         C47       1.0000    0.85270   0.09390   0.06060   Biso      1.000     C          -0.10414  
         C48       1.0000    0.79400   0.06480   0.11100   Biso      1.000     C          -0.003086           
         C49       1.0000    0.85590   0.02390   0.20020   Biso      1.000     C          0.546288  
         C50       1.0000    0.92010   0.17210   0.45120   Biso      1.000     C          0.609625  
         C51       1.0000    0.80410   0.30680   0.46840   Biso      1.000     C          -0.102043           
         C52       1.0000    0.84060   0.24850   0.41160   Biso      1.000     C          -0.007355           
         C53       1.0000    0.80900   0.26170   0.31860   Biso      1.000     C          -0.173196           
         C54       1.0000    0.73150   0.33110   0.28280   Biso      1.000     C          0.229418  
         C55       1.0000    0.68780   0.38450   0.33880   Biso      1.000     C          -0.187198           
         C56       1.0000    0.72560   0.37490   0.43160   Biso      1.000     C          0.005687  
         C57       1.0000    0.68410   0.43510   0.49220   Biso      1.000     C          0.589754  
         C58       1.0000    0.76380   0.34600   0.15280   Biso      1.000     C          0.08466   
         C59       1.0000    0.60180   0.43530   0.92380   Biso      1.000     C          -0.107459           
         C60       1.0000    0.62510   0.40340   0.00720   Biso      1.000     C          -0.118185           
         C61       1.0000    0.73430   0.37390   0.05920   Biso      1.000     C          0.065779  
         C62       1.0000    0.81590   0.37650   0.02380   Biso      1.000     C          -0.14557  
         C63       1.0000    0.65100   0.88450   0.33880   Biso      1.000     C          -0.187717           
         C64       1.0000    0.50960   0.76170   0.31860   Biso      1.000     C          -0.170668           
         Eu1       1.0000    0.38488   0.45756   0.37104   Biso      1.000     Eu          1.369785  
         Eu2       1.0000    0.01384   0.04244   0.62896   Biso      1.000     Eu          1.369689  
         Eu3       1.0000    0.61512   0.54244   0.62896   Biso      1.000     Eu          1.369776  
         Eu4       1.0000    0.98616   0.95756   0.37104   Biso      1.000     Eu          1.369687  
         H1        1.0000    0.30050   0.19890   0.46920   Biso      1.000     H          0.133931  
         H2        1.0000    0.36150   0.95710   0.89120   Biso      1.000     H          0.122056  
         H3        1.0000    0.46170   0.90150   0.02940   Biso      1.000     H          0.114203  
         H4        1.0000    0.16830   0.85770   0.05760   Biso      1.000     H          0.11444   
         H5        1.0000    0.06770   0.90670   0.91640   Biso      1.000     H          0.123667  
         H6        1.0000    0.16870   0.69890   0.46920   Biso      1.000     H          0.134134  
         H7        1.0000    0.36770   0.57260   0.68620   Biso      1.000     H          0.143999  
         H8        1.0000    0.33300   0.83600   0.17600   Biso      1.000     H          0.093517  
         H9        1.0000    0.15700   0.66400   0.82400   Biso      1.000     H          0.088142  
         H10       1.0000    0.47030   0.54290   0.10880   Biso      1.000     H          0.121827  
         H11       1.0000    0.43230   0.59850   0.97060   Biso      1.000     H          0.114097  
         H12       1.0000    0.11070   0.64230   0.94240   Biso      1.000     H          0.114898  
         H13       1.0000    0.16090   0.77480   0.71800   Biso      1.000     H          0.136086  
         H14       1.0000    0.68150   0.92740   0.31380   Biso      1.000     H          0.144001  
         H15       1.0000    0.15130   0.59330   0.08360   Biso      1.000     H          0.129036  
         H16       1.0000    0.69950   0.80110   0.53080   Biso      1.000     H          0.13393   
         H17       1.0000    0.44290   0.72520   0.28200   Biso      1.000     H          0.13453   
         H18       1.0000    0.55710   0.27480   0.71800   Biso      1.000     H          0.134531  
         H19       1.0000    0.66700   0.16400   0.82400   Biso      1.000     H          0.093516  
         H20       1.0000    0.63850   0.04290   0.10880   Biso      1.000     H          0.122056  
         H21       1.0000    0.53830   0.09850   0.97060   Biso      1.000     H          0.114202  
         H22       1.0000    0.83170   0.14230   0.94240   Biso      1.000     H          0.11444   
         H23       1.0000    0.93230   0.09330   0.08360   Biso      1.000     H          0.123664  
         H24       1.0000    0.31850   0.07260   0.68620   Biso      1.000     H          0.144003  
         H25       1.0000    0.83910   0.22520   0.28200   Biso      1.000     H          0.136089  
         H26       1.0000    0.63230   0.42740   0.31380   Biso      1.000     H          0.144     
         H27       1.0000    0.84300   0.33600   0.17600   Biso      1.000     H          0.088143  
         H28       1.0000    0.52970   0.45710   0.89120   Biso      1.000     H          0.121827  
         H29       1.0000    0.84870   0.40670   0.91640   Biso      1.000     H          0.129035  
         H30       1.0000    0.56770   0.40150   0.02940   Biso      1.000     H          0.114096  
         H31       1.0000    0.83130   0.30110   0.53080   Biso      1.000     H          0.134135  
         H32       1.0000    0.88930   0.35770   0.05760   Biso      1.000     H          0.114896  
         N1        1.0000    0.69630   0.34990   0.19060   Biso      1.000     N          -0.222619           
         N2        1.0000    0.50570   0.15010   0.80940   Biso      1.000     N          -0.222111           
         N3        1.0000    0.30370   0.65010   0.80940   Biso      1.000     N          -0.222619           
         N4        1.0000    0.49430   0.84990   0.19060   Biso      1.000     N          -0.222108           
         O1        1.0000    0.73720   0.48000   0.77160   Biso      1.000     O          -0.550374           
         O2        1.0000    0.12620   0.02900   0.54040   Biso      1.000     O          -0.604701           
         O3        1.0000    0.17070   0.04490   0.42400   Biso      1.000     O          -0.507512           
         O4        1.0000    0.80520   0.00040   0.24660   Biso      1.000     O          -0.54126  
         O5        1.0000    0.96560   0.02000   0.22840   Biso      1.000     O          -0.54981  
         O6        1.0000    0.95590   0.12310   0.39720   Biso      1.000     O          -0.519149           
         O7        1.0000    0.94390   0.16210   0.53280   Biso      1.000     O          -0.584251           
         O8        1.0000    0.74670   0.45510   0.57600   Biso      1.000     O          -0.50753  
         O9        1.0000    0.58580   0.47100   0.45960   Biso      1.000     O          -0.605541           
         O10       1.0000    0.55860   0.49960   0.75340   Biso      1.000     O          -0.542003           
         O11       1.0000    0.44130   0.62310   0.39720   Biso      1.000     O          -0.518754           
         O12       1.0000    0.44140   0.50040   0.24660   Biso      1.000     O          -0.542009           
         O13       1.0000    0.82930   0.95510   0.57600   Biso      1.000     O          -0.507516           
         O14       1.0000    0.87380   0.97100   0.45960   Biso      1.000     O          -0.604703           
         O15       1.0000    0.19480   0.99960   0.75340   Biso      1.000     O          -0.541251           
         O16       1.0000    0.03440   0.98000   0.77160   Biso      1.000     O          -0.54977  
         O17       1.0000    0.04410   0.87690   0.60280   Biso      1.000     O          -0.519151           
         O18       1.0000    0.05610   0.83790   0.46720   Biso      1.000     O          -0.584253           
         O19       1.0000    0.25330   0.54490   0.42400   Biso      1.000     O          -0.507529           
         O20       1.0000    0.41420   0.52900   0.54040   Biso      1.000     O          -0.605542           
         O21       1.0000    0.26280   0.52000   0.22840   Biso      1.000     O          -0.550395           
         O22       1.0000    0.41110   0.33790   0.46720   Biso      1.000     O          -0.584282           
         O23       1.0000    0.58890   0.66210   0.53280   Biso      1.000     O          -0.584278           
         O24       1.0000    0.55870   0.37690   0.60280   Biso      1.000     O          -0.51875 