
##########################################################################
#               Crystallographic Information Format file
#               Produced by PyCifRW module
#
#  This is a CIF file.  CIF has been adopted by the International
#  Union of Crystallography as the standard for data archiving and
#  transmission.
#
#  For information on this file format, follow the CIF links at
#  http://www.iucr.org
##########################################################################

data_image0

_cell_length_a                          13.6093
_cell_length_b                          13.9077
_cell_length_c                          15.9865
_cell_angle_alpha                       115.784
_cell_angle_beta                        98.1641
_cell_angle_gamma                       90
_symmetry_space_group_name_H-M          'P 1'
_symmetry_int_tables_number             1
loop_
  _symmetry_equiv_pos_as_xyz
         'x, y, z' 
loop_
  _atom_site_label
  _atom_site_occupancy
  _atom_site_fract_x
  _atom_site_fract_y
  _atom_site_fract_z
  _atom_site_thermal_displace_type
  _atom_site_B_iso_or_equiv
  _atom_site_type_symbol
  _atom_site_charge
         C1        1.0000    0.82960   0.06650   0.28840   Biso      1.000     C          0.23319600000000001           
         C2        1.0000    0.56000   0.90720   0.07420   Biso      1.000     C          -0.09289299999999999          
         C3        1.0000    0.59850   0.88600   0.98860   Biso      1.000     C          -0.12621  
         C4        1.0000    0.62390   0.78410   0.93660   Biso      1.000     C          0.10020499999999999           
         C5        1.0000    0.62700   0.70910   0.96580   Biso      1.000     C          -0.146303           
         C6        1.0000    0.59700   0.73450   0.05820   Biso      1.000     C          -0.1065   
         C7        1.0000    0.65020   0.75210   0.84220   Biso      1.000     C          0.006166  
         C8        1.0000    0.56780   0.83000   0.50320   Biso      1.000     C          0.654148  
         C9        1.0000    0.62750   0.78590   0.56160   Biso      1.000     C          -0.020966           
         C10       1.0000    0.69500   0.70810   0.52500   Biso      1.000     C          -0.12103  
         C11       1.0000    0.75010   0.66960   0.58180   Biso      1.000     C          -0.006486           
         C12       1.0000    0.73660   0.70650   0.67580   Biso      1.000     C          -0.185908           
         C13       1.0000    0.67040   0.77810   0.71160   Biso      1.000     C          0.234033  
         C14       1.0000    0.61650   0.82440   0.65820   Biso      1.000     C          -0.188301           
         C15       1.0000    0.55950   0.83100   0.10580   Biso      1.000     C          -0.007638           
         C16       1.0000    0.82900   0.58950   0.54400   Biso      1.000     C          0.6719890000000001  
         C17       1.0000    0.94050   0.72520   0.89420   Biso      1.000     C          -0.008154           
         C18       1.0000    0.94000   0.83300   0.92580   Biso      1.000     C          -0.09287100000000001          
         C19       1.0000    0.90150   0.89740   0.01140   Biso      1.000     C          -0.12279100000000001          
         C20       1.0000    0.87610   0.84750   0.06340   Biso      1.000     C          0.096943  
         C21       1.0000    0.87300   0.74330   0.03420   Biso      1.000     C          -0.145287           
         C22       1.0000    0.90300   0.67630   0.94180   Biso      1.000     C          -0.10581199999999999          
         C23       1.0000    0.84980   0.90990   0.15780   Biso      1.000     C          0.006418000000000001          
         C24       1.0000    0.93220   0.32680   0.49680   Biso      1.000     C          0.654205  
         C25       1.0000    0.87250   0.22430   0.43840   Biso      1.000     C          -0.020875           
         C26       1.0000    0.80500   0.18310   0.47500   Biso      1.000     C          -0.121709           
         C27       1.0000    0.74990   0.08780   0.41820   Biso      1.000     C          -0.006501000000000001         
         C28       1.0000    0.76340   0.03070   0.32420   Biso      1.000     C          -0.185319           
         C29       1.0000    0.47650   0.15060   0.80700   Biso      1.000     C          0.608441  
         C30       1.0000    0.97650   0.65640   0.80700   Biso      1.000     C          0.6078439999999999  
         C31       1.0000    0.52350   0.84940   0.19300   Biso      1.000     C          0.608437  
         C32       1.0000    0.44050   0.16900   0.89420   Biso      1.000     C          -0.007665000000000001         
         C33       1.0000    0.44000   0.09280   0.92580   Biso      1.000     C          -0.092876           
         C34       1.0000    0.32900   0.95450   0.54400   Biso      1.000     C          0.672493  
         C35       1.0000    0.11650   0.83380   0.65820   Biso      1.000     C          -0.188373           
         C36       1.0000    0.17040   0.93350   0.71160   Biso      1.000     C          0.23319499999999999           
         C37       1.0000    0.23660   0.96930   0.67580   Biso      1.000     C          -0.185325           
         C38       1.0000    0.25010   0.91220   0.58180   Biso      1.000     C          -0.006497           
         C39       1.0000    0.19500   0.81690   0.52500   Biso      1.000     C          -0.121702           
         C40       1.0000    0.12750   0.77570   0.56160   Biso      1.000     C          -0.020871999999999998         
         C41       1.0000    0.06780   0.67320   0.50320   Biso      1.000     C          0.654205  
         C42       1.0000    0.15020   0.09010   0.84220   Biso      1.000     C          0.006219  
         C43       1.0000    0.09700   0.32370   0.05820   Biso      1.000     C          -0.105799           
         C44       1.0000    0.12700   0.25670   0.96580   Biso      1.000     C          -0.145336           
         C45       1.0000    0.12390   0.15250   0.93660   Biso      1.000     C          0.09703200000000001           
         C46       1.0000    0.09850   0.10260   0.98860   Biso      1.000     C          -0.122774           
         C47       1.0000    0.06000   0.16700   0.07420   Biso      1.000     C          -0.09288400000000001          
         C48       1.0000    0.05950   0.27480   0.10580   Biso      1.000     C          -0.008131999999999999         
         C49       1.0000    0.02350   0.34360   0.19300   Biso      1.000     C          0.6078399999999999  
         C50       1.0000    0.17100   0.41050   0.45600   Biso      1.000     C          0.671988  
         C51       1.0000    0.38350   0.17560   0.34180   Biso      1.000     C          -0.188303           
         C52       1.0000    0.32960   0.22190   0.28840   Biso      1.000     C          0.234006  
         C53       1.0000    0.26340   0.29350   0.32420   Biso      1.000     C          -0.185875           
         C54       1.0000    0.24990   0.33040   0.41820   Biso      1.000     C          -0.006495999999999999         
         C55       1.0000    0.30500   0.29190   0.47500   Biso      1.000     C          -0.12103  
         C56       1.0000    0.37250   0.21410   0.43840   Biso      1.000     C          -0.020971           
         C57       1.0000    0.43220   0.17000   0.49680   Biso      1.000     C          0.654148  
         C58       1.0000    0.34980   0.24790   0.15780   Biso      1.000     C          0.00626   
         C59       1.0000    0.40300   0.26550   0.94180   Biso      1.000     C          -0.10649600000000001          
         C60       1.0000    0.37300   0.29090   0.03420   Biso      1.000     C          -0.146323           
         C61       1.0000    0.37610   0.21590   0.06340   Biso      1.000     C          0.1002    
         C62       1.0000    0.40150   0.11400   0.01140   Biso      1.000     C          -0.126212           
         C63       1.0000    0.88350   0.16620   0.34180   Biso      1.000     C          -0.188384           
         C64       1.0000    0.67100   0.04550   0.45600   Biso      1.000     C          0.6724899999999999  
         Dy1       1.0000    0.45891   0.89317   0.36784   Biso      1.000     Dy          2.058745  
         Dy2       1.0000    0.54109   0.10683   0.63216   Biso      1.000     Dy          2.0587459999999997  
         Dy3       1.0000    0.04109   0.52533   0.63216   Biso      1.000     Dy          2.0594900000000003  
         Dy4       1.0000    0.95891   0.47467   0.36784   Biso      1.000     Dy          2.0594900000000003  
         H1        1.0000    0.53540   0.97330   0.10780   Biso      1.000     H          0.1243    
         H2        1.0000    0.60590   0.93970   0.96960   Biso      1.000     H          0.12525   
         H3        1.0000    0.64760   0.64180   0.92920   Biso      1.000     H          0.119755  
         H4        1.0000    0.60410   0.68550   0.08360   Biso      1.000     H          0.125354  
         H5        1.0000    0.70270   0.68230   0.46220   Biso      1.000     H          0.133346  
         H6        1.0000    0.77430   0.68070   0.71380   Biso      1.000     H          0.130083  
         H7        1.0000    0.57480   0.87860   0.68500   Biso      1.000     H          0.145748  
         H8        1.0000    0.96460   0.86550   0.89220   Biso      1.000     H          0.1242    
         H9        1.0000    0.89410   0.97010   0.03040   Biso      1.000     H          0.12388800000000001           
         H10       1.0000    0.85240   0.71260   0.07080   Biso      1.000     H          0.11955299999999999           
         H11       1.0000    0.89590   0.60190   0.91640   Biso      1.000     H          0.125032  
         H12       1.0000    0.79730   0.22010   0.53780   Biso      1.000     H          0.133029  
         H13       1.0000    0.07480   0.80640   0.68500   Biso      1.000     H          0.146048  
         H14       1.0000    0.92520   0.19360   0.31500   Biso      1.000     H          0.146047  
         H15       1.0000    0.72570   0.96690   0.28620   Biso      1.000     H          0.130321  
         H16       1.0000    0.20270   0.77990   0.46220   Biso      1.000     H          0.133028  
         H17       1.0000    0.10410   0.39810   0.08360   Biso      1.000     H          0.125033  
         H18       1.0000    0.14760   0.28740   0.92920   Biso      1.000     H          0.119546  
         H19       1.0000    0.10590   0.02990   0.96960   Biso      1.000     H          0.123894  
         H20       1.0000    0.03540   0.13450   0.10780   Biso      1.000     H          0.1242    
         H21       1.0000    0.27430   0.03310   0.71380   Biso      1.000     H          0.13031800000000002           
         H22       1.0000    0.22570   0.31930   0.28620   Biso      1.000     H          0.130082  
         H23       1.0000    0.29730   0.31770   0.53780   Biso      1.000     H          0.133346  
         H24       1.0000    0.39590   0.31450   0.91640   Biso      1.000     H          0.125351  
         H25       1.0000    0.35240   0.35820   0.07080   Biso      1.000     H          0.11976300000000001           
         H26       1.0000    0.39410   0.06030   0.03040   Biso      1.000     H          0.125246  
         H27       1.0000    0.46460   0.02670   0.89220   Biso      1.000     H          0.1243    
         H28       1.0000    0.42520   0.12140   0.31500   Biso      1.000     H          0.14574700000000002           
         N1        1.0000    0.35080   0.18500   0.19560   Biso      1.000     N          -0.200782           
         N2        1.0000    0.14920   0.98940   0.80440   Biso      1.000     N          -0.200163           
         N3        1.0000    0.64920   0.81500   0.80440   Biso      1.000     N          -0.200755           
         N4        1.0000    0.85080   0.01060   0.19560   Biso      1.000     N          -0.200223           
         O1        1.0000    0.47940   0.21340   0.77560   Biso      1.000     O          -0.613961           
         O2        1.0000    0.05200   0.64190   0.41580   Biso      1.000     O          -0.606941           
         O3        1.0000    0.99330   0.29730   0.24500   Biso      1.000     O          -0.722653           
         O4        1.0000    0.04050   0.61550   0.54020   Biso      1.000     O          -0.767109           
         O5        1.0000    0.02060   0.43780   0.22440   Biso      1.000     O          -0.61366  
         O6        1.0000    0.12460   0.44260   0.39940   Biso      1.000     O          -0.623379           
         O7        1.0000    0.16160   0.43550   0.53940   Biso      1.000     O          -0.700625           
         O8        1.0000    0.45950   0.07530   0.45980   Biso      1.000     O          -0.7669189999999999           
         O9        1.0000    0.44800   0.22610   0.58420   Biso      1.000     O          -0.607173           
         O10       1.0000    0.50670   0.05230   0.75500   Biso      1.000     O          -0.722694           
         O11       1.0000    0.62460   0.95680   0.39940   Biso      1.000     O          -0.623696           
         O12       1.0000    0.55200   0.77390   0.41580   Biso      1.000     O          -0.607172           
         O13       1.0000    0.95950   0.38450   0.45980   Biso      1.000     O          -0.7671100000000001           
         O14       1.0000    0.94800   0.35810   0.58420   Biso      1.000     O          -0.606941           
         O15       1.0000    0.00670   0.70270   0.75500   Biso      1.000     O          -0.7226520000000001           
         O16       1.0000    0.97940   0.56220   0.77560   Biso      1.000     O          -0.6136590000000001           
         O17       1.0000    0.87540   0.55740   0.60060   Biso      1.000     O          -0.623376           
         O18       1.0000    0.83840   0.56450   0.46060   Biso      1.000     O          -0.700625           
         O19       1.0000    0.54050   0.92470   0.54020   Biso      1.000     O          -0.766918           
         O20       1.0000    0.49330   0.94770   0.24500   Biso      1.000     O          -0.722696           
         O21       1.0000    0.52060   0.78660   0.22440   Biso      1.000     O          -0.613961           
         O22       1.0000    0.33840   0.89610   0.46060   Biso      1.000     O          -0.700481           
         O23       1.0000    0.66160   0.10390   0.53940   Biso      1.000     O          -0.70048  
         O24       1.0000    0.37540   0.04320   0.60060   Biso      1.000     O          -0.623692 