
##########################################################################
#               Crystallographic Information Format file
#               Produced by PyCifRW module
#
#  This is a CIF file.  CIF has been adopted by the International
#  Union of Crystallography as the standard for data archiving and
#  transmission.
#
#  For information on this file format, follow the CIF links at
#  http://www.iucr.org
##########################################################################

data_image0

_cell_length_a                          13.0903
_cell_length_b                          13.9533
_cell_length_c                          15.9804
_cell_angle_alpha                       96.908
_cell_angle_beta                        114.178
_cell_angle_gamma                       90
_symmetry_space_group_name_H-M          'P 1'
_symmetry_int_tables_number             1
loop_
  _symmetry_equiv_pos_as_xyz
         'x, y, z' 
loop_
  _atom_site_label
  _atom_site_occupancy
  _atom_site_fract_x
  _atom_site_fract_y
  _atom_site_fract_z
  _atom_site_thermal_displace_type
  _atom_site_B_iso_or_equiv
  _atom_site_type_symbol
  _atom_site_charge
         C1        1.0000    0.22640   0.83260   0.28320   Biso      1.000     C          0.228965  
         C2        1.0000    0.65660   0.40140   0.93640   Biso      1.000     C          -0.107879           
         C3        1.0000    0.71770   0.37230   0.02400   Biso      1.000     C          -0.15454  
         C4        1.0000    0.83230   0.37510   0.05820   Biso      1.000     C          0.076624  
         C5        1.0000    0.88430   0.40530   0.00800   Biso      1.000     C          -0.119342           
         C6        1.0000    0.82370   0.43620   0.92340   Biso      1.000     C          -0.097875           
         C7        1.0000    0.71000   0.43560   0.88880   Biso      1.000     C          -0.004991           
         C8        1.0000    0.64510   0.47320   0.79760   Biso      1.000     C          0.580026  
         C9        1.0000    0.41670   0.67240   0.45140   Biso      1.000     C          0.6859    
         C10       1.0000    0.30030   0.80820   0.46900   Biso      1.000     C          -0.12168599999999999          
         C11       1.0000    0.33860   0.75020   0.41280   Biso      1.000     C          -0.014121000000000002         
         C12       1.0000    0.30300   0.76320   0.31980   Biso      1.000     C          -0.179514           
         C13       1.0000    0.18390   0.88520   0.33780   Biso      1.000     C          -0.186551           
         C14       1.0000    0.22080   0.87490   0.43140   Biso      1.000     C          -0.016564           
         C15       1.0000    0.17880   0.93500   0.49260   Biso      1.000     C          0.650183  
         C16       1.0000    0.25940   0.84740   0.15320   Biso      1.000     C          0.066083  
         C17       1.0000    0.27980   0.90140   0.93640   Biso      1.000     C          -0.108247           
         C18       1.0000    0.30630   0.87230   0.02400   Biso      1.000     C          -0.154444           
         C19       1.0000    0.12370   0.90530   0.00800   Biso      1.000     C          -0.11777  
         C20       1.0000    0.09970   0.93620   0.92340   Biso      1.000     C          -0.09926499999999999          
         C21       1.0000    0.17880   0.93560   0.88880   Biso      1.000     C          -0.004005           
         C22       1.0000    0.15250   0.97320   0.79760   Biso      1.000     C          0.580544  
         C23       1.0000    0.89380   0.34740   0.15320   Biso      1.000     C          0.065535  
         C24       1.0000    0.96530   0.82760   0.54860   Biso      1.000     C          0.685238  
         C25       1.0000    0.31380   0.43500   0.49260   Biso      1.000     C          0.648947  
         C26       1.0000    0.15390   0.38520   0.33780   Biso      1.000     C          -0.18623599999999998          
         C27       1.0000    0.58330   0.32760   0.54860   Biso      1.000     C          0.6859    
         C28       1.0000    0.69970   0.19180   0.53100   Biso      1.000     C          -0.12168699999999999          
         C29       1.0000    0.66140   0.24980   0.58720   Biso      1.000     C          -0.014121000000000002         
         C30       1.0000    0.69700   0.23680   0.68020   Biso      1.000     C          -0.179514           
         C31       1.0000    0.77360   0.16740   0.71680   Biso      1.000     C          0.228965  
         C32       1.0000    0.81610   0.11480   0.66220   Biso      1.000     C          -0.186551           
         C33       1.0000    0.77920   0.12510   0.56860   Biso      1.000     C          -0.016564           
         C34       1.0000    0.82120   0.06500   0.50740   Biso      1.000     C          0.650183  
         C35       1.0000    0.74060   0.15260   0.84680   Biso      1.000     C          0.066084  
         C36       1.0000    0.72020   0.09860   0.06360   Biso      1.000     C          -0.108248           
         C37       1.0000    0.69370   0.12770   0.97600   Biso      1.000     C          -0.154442           
         C38       1.0000    0.77410   0.12490   0.94180   Biso      1.000     C          0.077151  
         C39       1.0000    0.87630   0.09470   0.99200   Biso      1.000     C          -0.117746           
         C40       1.0000    0.90030   0.06380   0.07660   Biso      1.000     C          -0.099268           
         C41       1.0000    0.82120   0.06440   0.11120   Biso      1.000     C          -0.004004           
         C42       1.0000    0.84750   0.02680   0.20240   Biso      1.000     C          0.580545  
         C43       1.0000    0.03470   0.17240   0.45140   Biso      1.000     C          0.685238  
         C44       1.0000    0.16870   0.30820   0.46900   Biso      1.000     C          -0.121529           
         C45       1.0000    0.07420   0.25020   0.41280   Biso      1.000     C          -0.01381  
         C46       1.0000    0.01680   0.26320   0.31980   Biso      1.000     C          -0.180948           
         C47       1.0000    0.05680   0.33260   0.28320   Biso      1.000     C          0.229818  
         C48       1.0000    0.21060   0.37490   0.43140   Biso      1.000     C          -0.016996999999999998         
         C49       1.0000    0.83130   0.69180   0.53100   Biso      1.000     C          -0.121529           
         C50       1.0000    0.22590   0.87510   0.05820   Biso      1.000     C          0.077172  
         C51       1.0000    0.98320   0.73680   0.68020   Biso      1.000     C          -0.180948           
         C52       1.0000    0.92580   0.74980   0.58720   Biso      1.000     C          -0.01381  
         C53       1.0000    0.29000   0.56440   0.11120   Biso      1.000     C          -0.005012           
         C54       1.0000    0.17630   0.56380   0.07660   Biso      1.000     C          -0.097867           
         C55       1.0000    0.11570   0.59470   0.99200   Biso      1.000     C          -0.11935799999999999          
         C56       1.0000    0.16770   0.62490   0.94180   Biso      1.000     C          0.076628  
         C57       1.0000    0.28230   0.62770   0.97600   Biso      1.000     C          -0.154531           
         C58       1.0000    0.35490   0.52680   0.20240   Biso      1.000     C          0.5800270000000001  
         C59       1.0000    0.10620   0.65260   0.84680   Biso      1.000     C          0.065535  
         C60       1.0000    0.68620   0.56500   0.50740   Biso      1.000     C          0.648947  
         C61       1.0000    0.78940   0.62510   0.56860   Biso      1.000     C          -0.016996999999999998         
         C62       1.0000    0.84610   0.61480   0.66220   Biso      1.000     C          -0.18623599999999998          
         C63       1.0000    0.94320   0.66740   0.71680   Biso      1.000     C          0.229818  
         C64       1.0000    0.34340   0.59860   0.06360   Biso      1.000     C          -0.10786199999999999          
         H1        1.0000    0.13910   0.54240   0.11000   Biso      1.000     H          0.12031700000000001           
         H2        1.0000    0.32750   0.80270   0.53180   Biso      1.000     H          0.13188   
         H3        1.0000    0.33030   0.72550   0.28220   Biso      1.000     H          0.130304  
         H4        1.0000    0.12940   0.92870   0.31240   Biso      1.000     H          0.139374  
         H5        1.0000    0.33240   0.89700   0.91100   Biso      1.000     H          0.12066199999999999           
         H6        1.0000    0.37720   0.85150   0.05800   Biso      1.000     H          0.115254  
         H7        1.0000    0.06850   0.90520   0.03060   Biso      1.000     H          0.113267  
         H8        1.0000    0.04810   0.77450   0.71780   Biso      1.000     H          0.130714  
         H9        1.0000    0.16300   0.69100   0.83400   Biso      1.000     H          0.079273  
         H10       1.0000    0.79570   0.69730   0.46820   Biso      1.000     H          0.131493  
         H11       1.0000    0.81700   0.57130   0.68760   Biso      1.000     H          0.13938599999999998           
         H12       1.0000    0.42140   0.60300   0.08900   Biso      1.000     H          0.12079000000000001           
         H13       1.0000    0.31920   0.64850   0.94200   Biso      1.000     H          0.11518900000000001           
         H14       1.0000    0.03790   0.59480   0.96940   Biso      1.000     H          0.11456600000000002           
         H15       1.0000    0.02910   0.95760   0.89000   Biso      1.000     H          0.12085699999999999           
         H16       1.0000    0.86090   0.45760   0.89000   Biso      1.000     H          0.12031800000000001           
         H17       1.0000    0.32900   0.80900   0.16600   Biso      1.000     H          0.07887899999999999           
         H18       1.0000    0.68080   0.35150   0.05800   Biso      1.000     H          0.11518900000000001           
         H19       1.0000    0.96210   0.40520   0.03060   Biso      1.000     H          0.11456500000000001           
         H20       1.0000    0.67100   0.19100   0.83400   Biso      1.000     H          0.07887899999999999           
         H21       1.0000    0.67250   0.19730   0.46820   Biso      1.000     H          0.13188   
         H22       1.0000    0.87060   0.07130   0.68760   Biso      1.000     H          0.139374  
         H23       1.0000    0.66760   0.10300   0.08900   Biso      1.000     H          0.12066199999999999           
         H24       1.0000    0.62280   0.14850   0.94200   Biso      1.000     H          0.115253  
         H25       1.0000    0.66970   0.27450   0.71780   Biso      1.000     H          0.130304  
         H26       1.0000    0.97090   0.04240   0.11000   Biso      1.000     H          0.12085699999999999           
         H27       1.0000    0.83700   0.30900   0.16600   Biso      1.000     H          0.079273  
         H28       1.0000    0.20430   0.30270   0.53180   Biso      1.000     H          0.131493  
         H29       1.0000    0.95190   0.22550   0.28220   Biso      1.000     H          0.130714  
         H30       1.0000    0.18300   0.42870   0.31240   Biso      1.000     H          0.13938599999999998           
         H31       1.0000    0.57860   0.39700   0.91100   Biso      1.000     H          0.12079100000000001           
         H32       1.0000    0.93150   0.09480   0.96940   Biso      1.000     H          0.113266  
         N1        1.0000    0.81056   0.14730   0.80892   Biso      1.000     N          -0.276534           
         N2        1.0000    0.99836   0.64730   0.80892   Biso      1.000     N          -0.276011           
         N3        1.0000    0.18944   0.85270   0.19108   Biso      1.000     N          -0.276534           
         N4        1.0000    0.00164   0.35270   0.19108   Biso      1.000     N          -0.276011           
         O1        1.0000    0.43845   0.66110   0.53430   Biso      1.000     O          -0.728575           
         O2        1.0000    0.69539   0.50010   0.75218   Biso      1.000     O          -0.637496           
         O3        1.0000    0.53979   0.47570   0.77018   Biso      1.000     O          -0.666329           
         O4        1.0000    0.37762   0.46750   0.45824   Biso      1.000     O          -0.767153           
         O5        1.0000    0.33791   0.45440   0.57742   Biso      1.000     O          -0.60027  
         O6        1.0000    0.45353   0.62550   0.40006   Biso      1.000     O          -0.619722           
         O7        1.0000    0.09585   0.16110   0.53430   Biso      1.000     O          -0.728301           
         O8        1.0000    0.76049   0.04560   0.42258   Biso      1.000     O          -0.601133           
         O9        1.0000    0.91938   0.03250   0.54176   Biso      1.000     O          -0.7672439999999999           
         O10       1.0000    0.76961   0.02430   0.22982   Biso      1.000     O          -0.666737           
         O11       1.0000    0.94321   0.99990   0.24782   Biso      1.000     O          -0.6376539999999999           
         O12       1.0000    0.94653   0.12550   0.40006   Biso      1.000     O          -0.619129           
         O13       1.0000    0.23951   0.95440   0.57742   Biso      1.000     O          -0.601133           
         O14       1.0000    0.56155   0.33890   0.46570   Biso      1.000     O          -0.728575           
         O15       1.0000    0.23039   0.97570   0.77018   Biso      1.000     O          -0.666737           
         O16       1.0000    0.05679   0.00010   0.75218   Biso      1.000     O          -0.6376539999999999           
         O17       1.0000    0.90415   0.83890   0.46570   Biso      1.000     O          -0.728301           
         O18       1.0000    0.05347   0.87450   0.59994   Biso      1.000     O          -0.619129           
         O19       1.0000    0.66209   0.54560   0.42258   Biso      1.000     O          -0.60027  
         O20       1.0000    0.62238   0.53250   0.54176   Biso      1.000     O          -0.767153           
         O21       1.0000    0.46021   0.52430   0.22982   Biso      1.000     O          -0.666329           
         O22       1.0000    0.30461   0.49990   0.24782   Biso      1.000     O          -0.637497           
         O23       1.0000    0.54647   0.37450   0.59994   Biso      1.000     O          -0.619722           
         O24       1.0000    0.08062   0.96750   0.45824   Biso      1.000     O          -0.7672439999999999           
         Tb1       1.0000    0.88783   0.95895   0.37108   Biso      1.000     Tb          2.060413  
         Tb2       1.0000    0.51675   0.54105   0.62892   Biso      1.000     Tb          2.060948  
         Tb3       1.0000    0.11217   0.04105   0.62892   Biso      1.000     Tb          2.060413  
         Tb4       1.0000    0.48325   0.45895   0.37108   Biso      1.000     Tb          2.060948 