
##########################################################################
#               Crystallographic Information Format file
#               Produced by PyCifRW module
#
#  This is a CIF file.  CIF has been adopted by the International
#  Union of Crystallography as the standard for data archiving and
#  transmission.
#
#  For information on this file format, follow the CIF links at
#  http://www.iucr.org
##########################################################################

data_image0

_cell_length_a                          13.3467
_cell_length_b                          14.354
_cell_length_c                          16.0336
_cell_angle_alpha                       116.591
_cell_angle_beta                        98.621
_cell_angle_gamma                       90
_symmetry_space_group_name_H-M          'P 1'
_symmetry_int_tables_number             1
loop_
  _symmetry_equiv_pos_as_xyz
         'x, y, z' 
loop_
  _atom_site_label
  _atom_site_occupancy
  _atom_site_fract_x
  _atom_site_fract_y
  _atom_site_fract_z
  _atom_site_thermal_displace_type
  _atom_site_B_iso_or_equiv
  _atom_site_type_symbol
  _atom_site_charge
         C1        1.0000    0.16810   0.78470   0.71020   Biso      1.000     C          0.229508  
         C2        1.0000    0.56590   0.16270   0.07780   Biso      1.000     C          -0.099797           
         C3        1.0000    0.55700   0.26550   0.10560   Biso      1.000     C          -0.010554           
         C4        1.0000    0.52000   0.33390   0.19500   Biso      1.000     C          0.598252  
         C5        1.0000    0.32730   0.59340   0.54240   Biso      1.000     C          0.676821  
         C6        1.0000    0.11860   0.82940   0.65580   Biso      1.000     C          -0.191346           
         C7        1.0000    0.76380   0.28980   0.32600   Biso      1.000     C          -0.183867           
         C8        1.0000    0.23620   0.71020   0.67400   Biso      1.000     C          -0.183615           
         C9        1.0000    0.24980   0.67320   0.58020   Biso      1.000     C          -0.009863           
         C10       1.0000    0.19560   0.71230   0.52280   Biso      1.000     C          -0.118845           
         C11       1.0000    0.12990   0.79090   0.56040   Biso      1.000     C          -0.01671  
         C12       1.0000    0.07360   0.83650   0.50200   Biso      1.000     C          0.655481  
         C13       1.0000    0.14890   0.76090   0.83880   Biso      1.000     C          0.011234  
         C14       1.0000    0.09000   0.74060   0.05100   Biso      1.000     C          -0.098983           
         C15       1.0000    0.11200   0.71650   0.96100   Biso      1.000     C          -0.13954  
         C16       1.0000    0.12310   0.79070   0.93500   Biso      1.000     C          0.09278   
         C17       1.0000    0.10000   0.89160   0.98980   Biso      1.000     C          -0.125435           
         C18       1.0000    0.06590   0.91510   0.07780   Biso      1.000     C          -0.098877           
         C19       1.0000    0.05700   0.84010   0.10560   Biso      1.000     C          -0.010976           
         C20       1.0000    0.02000   0.86110   0.19500   Biso      1.000     C          0.596671  
         C21       1.0000    0.60000   0.09820   0.98980   Biso      1.000     C          -0.125911           
         C22       1.0000    0.17270   0.05100   0.45760   Biso      1.000     C          0.677403  
         C23       1.0000    0.62310   0.14430   0.93500   Biso      1.000     C          0.085543  
         C24       1.0000    0.59000   0.31040   0.05100   Biso      1.000     C          -0.099898           
         C25       1.0000    0.87010   0.20910   0.43960   Biso      1.000     C          -0.016985           
         C26       1.0000    0.92640   0.16350   0.49800   Biso      1.000     C          0.655688  
         C27       1.0000    0.85110   0.23910   0.16120   Biso      1.000     C          0.044895  
         C28       1.0000    0.91000   0.25940   0.94900   Biso      1.000     C          -0.099679           
         C29       1.0000    0.88800   0.28350   0.03900   Biso      1.000     C          -0.13974  
         C30       1.0000    0.87690   0.20930   0.06500   Biso      1.000     C          0.083812  
         C31       1.0000    0.90000   0.10840   0.01020   Biso      1.000     C          -0.124559           
         C32       1.0000    0.93410   0.08490   0.92220   Biso      1.000     C          -0.099785           
         C33       1.0000    0.94300   0.15990   0.89440   Biso      1.000     C          -0.011697           
         C34       1.0000    0.98000   0.13890   0.80500   Biso      1.000     C          0.596371  
         C35       1.0000    0.82730   0.94900   0.54240   Biso      1.000     C          0.677255  
         C36       1.0000    0.61860   0.82640   0.65580   Biso      1.000     C          -0.190387           
         C37       1.0000    0.66810   0.92550   0.71020   Biso      1.000     C          0.232561  
         C38       1.0000    0.73620   0.96380   0.67400   Biso      1.000     C          -0.183686           
         C39       1.0000    0.74980   0.90700   0.58020   Biso      1.000     C          -0.009711           
         C40       1.0000    0.69560   0.81050   0.52280   Biso      1.000     C          -0.123662           
         C41       1.0000    0.62990   0.76950   0.56040   Biso      1.000     C          -0.015769           
         C42       1.0000    0.57360   0.66550   0.50200   Biso      1.000     C          0.655652  
         C43       1.0000    0.64890   0.07790   0.83880   Biso      1.000     C          0.044454  
         C44       1.0000    0.61200   0.24450   0.96100   Biso      1.000     C          -0.138841           
         C45       1.0000    0.38140   0.17360   0.34420   Biso      1.000     C          -0.190828           
         C46       1.0000    0.33190   0.07450   0.28980   Biso      1.000     C          0.229772  
         C47       1.0000    0.26380   0.03620   0.32600   Biso      1.000     C          -0.18344  
         C48       1.0000    0.67270   0.40660   0.45760   Biso      1.000     C          0.676682  
         C49       1.0000    0.88140   0.17060   0.34420   Biso      1.000     C          -0.19089  
         C50       1.0000    0.83190   0.21530   0.28980   Biso      1.000     C          0.232267  
         C51       1.0000    0.80440   0.28770   0.47720   Biso      1.000     C          -0.119628           
         C52       1.0000    0.48000   0.66610   0.80500   Biso      1.000     C          0.598551  
         C53       1.0000    0.44300   0.73450   0.89440   Biso      1.000     C          -0.009827           
         C54       1.0000    0.43410   0.83730   0.92220   Biso      1.000     C          -0.09882  
         C55       1.0000    0.40000   0.90180   0.01020   Biso      1.000     C          -0.125672           
         C56       1.0000    0.75020   0.32680   0.41980   Biso      1.000     C          -0.010569           
         C57       1.0000    0.38800   0.75550   0.03900   Biso      1.000     C          -0.137545           
         C58       1.0000    0.41000   0.68960   0.94900   Biso      1.000     C          -0.09913  
         C59       1.0000    0.35110   0.92210   0.16120   Biso      1.000     C          0.011846  
         C60       1.0000    0.25020   0.09300   0.41980   Biso      1.000     C          -0.009025           
         C61       1.0000    0.30440   0.18950   0.47720   Biso      1.000     C          -0.12287  
         C62       1.0000    0.37010   0.23050   0.43960   Biso      1.000     C          -0.015488           
         C63       1.0000    0.37690   0.85570   0.06500   Biso      1.000     C          0.090969  
         C64       1.0000    0.42640   0.33450   0.49800   Biso      1.000     C          0.655442  
         H1        1.0000    0.11920   0.64710   0.91920   Biso      1.000     H          0.116799  
         H2        1.0000    0.10620   0.94320   0.97040   Biso      1.000     H          0.121722  
         H3        1.0000    0.05000   0.98260   0.11580   Biso      1.000     H          0.125866  
         H4        1.0000    0.42180   0.20210   0.31760   Biso      1.000     H          0.144988  
         H5        1.0000    0.40330   0.61740   0.92560   Biso      1.000     H          0.124669  
         H6        1.0000    0.29670   0.22650   0.54020   Biso      1.000     H          0.135229  
         H7        1.0000    0.38080   0.72790   0.08080   Biso      1.000     H          0.115482  
         H8        1.0000    0.39380   0.97280   0.02960   Biso      1.000     H          0.121501  
         H9        1.0000    0.45000   0.86680   0.88420   Biso      1.000     H          0.125712  
         H10       1.0000    0.22700   0.97240   0.28780   Biso      1.000     H          0.13086   
         H11       1.0000    0.09670   0.69180   0.07440   Biso      1.000     H          0.124829  
         H12       1.0000    0.07820   0.88450   0.68240   Biso      1.000     H          0.145117  
         H13       1.0000    0.27300   0.68460   0.71220   Biso      1.000     H          0.131179  
         H14       1.0000    0.55000   0.13320   0.11580   Biso      1.000     H          0.125095  
         H15       1.0000    0.60620   0.02720   0.97040   Biso      1.000     H          0.121808  
         H16       1.0000    0.61920   0.27210   0.91920   Biso      1.000     H          0.116489  
         H17       1.0000    0.59670   0.38260   0.07440   Biso      1.000     H          0.12435   
         H18       1.0000    0.77300   0.02760   0.71220   Biso      1.000     H          0.131802  
         H19       1.0000    0.57820   0.79790   0.68240   Biso      1.000     H          0.145016  
         H20       1.0000    0.95000   0.01740   0.88420   Biso      1.000     H          0.125247  
         H21       1.0000    0.89380   0.05680   0.02960   Biso      1.000     H          0.122054  
         H22       1.0000    0.88080   0.35290   0.08080   Biso      1.000     H          0.117834  
         H23       1.0000    0.90330   0.30820   0.92560   Biso      1.000     H          0.124513  
         H24       1.0000    0.79670   0.31370   0.54020   Biso      1.000     H          0.133336  
         H25       1.0000    0.72700   0.31540   0.28780   Biso      1.000     H          0.132123  
         H26       1.0000    0.92180   0.11550   0.31760   Biso      1.000     H          0.145146  
         H27       1.0000    0.20330   0.68630   0.45980   Biso      1.000     H          0.133399  
         H28       1.0000    0.70330   0.77350   0.45980   Biso      1.000     H          0.135168  
         Ho1       1.0000    0.96027   0.89592   0.36682   Biso      1.000     Ho          2.057952  
         Ho2       1.0000    0.46027   0.47090   0.36682   Biso      1.000     Ho          2.058991  
         Ho3       1.0000    0.03973   0.10408   0.63318   Biso      1.000     Ho          2.058028  
         Ho4       1.0000    0.53973   0.52910   0.63318   Biso      1.000     Ho          2.058915  
         N1        1.0000    0.35020   0.01880   0.19540   Biso      1.000     N          -0.196902           
         N2        1.0000    0.14980   0.82340   0.80460   Biso      1.000     N          -0.197211           
         N3        1.0000    0.64980   0.98120   0.80460   Biso      1.000     N          -0.220996           
         N4        1.0000    0.85020   0.17660   0.19540   Biso      1.000     N          -0.22123  
         O1        1.0000    0.49400   0.29200   0.24560   Biso      1.000     O          -0.672957           
         O2        1.0000    0.55440   0.63200   0.41260   Biso      1.000     O          -0.617614           
         O3        1.0000    0.54470   0.61270   0.54000   Biso      1.000     O          -0.761667           
         O4        1.0000    0.87210   0.03700   0.59860   Biso      1.000     O          -0.625497           
         O5        1.0000    0.94560   0.21940   0.58740   Biso      1.000     O          -0.617774           
         O6        1.0000    0.98160   0.20590   0.77840   Biso      1.000     O          -0.640331           
         O7        1.0000    0.00600   0.04640   0.75440   Biso      1.000     O          -0.672026           
         O8        1.0000    0.51840   0.42750   0.22160   Biso      1.000     O          -0.641693           
         O9        1.0000    0.95530   0.07270   0.46000   Biso      1.000     O          -0.760867           
         O10       1.0000    0.83910   0.89270   0.45760   Biso      1.000     O          -0.713412           
         O11       1.0000    0.33910   0.56490   0.45760   Biso      1.000     O          -0.712805           
         O12       1.0000    0.05440   0.78060   0.41260   Biso      1.000     O          -0.61787  
         O13       1.0000    0.04470   0.92730   0.54000   Biso      1.000     O          -0.760842           
         O14       1.0000    0.62790   0.43840   0.40140   Biso      1.000     O          -0.625981           
         O15       1.0000    0.99400   0.95360   0.24560   Biso      1.000     O          -0.671093           
         O16       1.0000    0.01840   0.79410   0.22160   Biso      1.000     O          -0.640439           
         O17       1.0000    0.16090   0.10730   0.54240   Biso      1.000     O          -0.713393           
         O18       1.0000    0.12790   0.96300   0.40140   Biso      1.000     O          -0.624795           
         O19       1.0000    0.45530   0.38730   0.46000   Biso      1.000     O          -0.761641           
         O20       1.0000    0.44560   0.36800   0.58740   Biso      1.000     O          -0.61771  
         O21       1.0000    0.50600   0.70800   0.75440   Biso      1.000     O          -0.672027           
         O22       1.0000    0.48160   0.57250   0.77840   Biso      1.000     O          -0.641803           
         O23       1.0000    0.37210   0.56160   0.59860   Biso      1.000     O          -0.625287           
         O24       1.0000    0.66090   0.43510   0.54240   Biso      1.000     O          -0.712823 