
##########################################################################
#               Crystallographic Information Format file
#               Produced by PyCifRW module
#
#  This is a CIF file.  CIF has been adopted by the International
#  Union of Crystallography as the standard for data archiving and
#  transmission.
#
#  For information on this file format, follow the CIF links at
#  http://www.iucr.org
##########################################################################

data_image0

_cell_length_a                          13.6347
_cell_length_b                          14.3145
_cell_length_c                          16.1151
_cell_angle_alpha                       116.368
_cell_angle_beta                        98.6325
_cell_angle_gamma                       90
_symmetry_space_group_name_H-M          'P 1'
_symmetry_int_tables_number             1
loop_
  _symmetry_equiv_pos_as_xyz
         'x, y, z' 
loop_
  _atom_site_label
  _atom_site_occupancy
  _atom_site_fract_x
  _atom_site_fract_y
  _atom_site_fract_z
  _atom_site_thermal_displace_type
  _atom_site_B_iso_or_equiv
  _atom_site_type_symbol
  _atom_site_charge
         C1        1.0000    0.74730   0.16800   0.57900   Biso      1.000     C          -0.011176           
         C2        1.0000    0.06630   0.66280   0.07220   Biso      1.000     C          -0.098415           
         C3        1.0000    0.09670   0.59940   0.98580   Biso      1.000     C          -0.127566           
         C4        1.0000    0.11980   0.64340   0.93020   Biso      1.000     C          0.078599  
         C5        1.0000    0.10590   0.74800   0.95600   Biso      1.000     C          -0.156046           
         C6        1.0000    0.08080   0.80860   0.04220   Biso      1.000     C          -0.101159           
         C7        1.0000    0.05710   0.76630   0.10020   Biso      1.000     C          -0.015175999999999999         
         C8        1.0000    0.02140   0.83260   0.19000   Biso      1.000     C          0.603059  
         C9        1.0000    0.82150   0.09250   0.54220   Biso      1.000     C          0.669978  
         C10       1.0000    0.61900   0.32400   0.65420   Biso      1.000     C          -0.190863           
         C11       1.0000    0.66720   0.28050   0.70840   Biso      1.000     C          0.22281399999999998           
         C12       1.0000    0.73690   0.20680   0.67320   Biso      1.000     C          -0.186318           
         C13       1.0000    0.69320   0.20700   0.52240   Biso      1.000     C          -0.12897  
         C14       1.0000    0.62800   0.28510   0.56020   Biso      1.000     C          -0.017195           
         C15       1.0000    0.57000   0.32770   0.49800   Biso      1.000     C          0.639496  
         C16       1.0000    0.64460   0.25710   0.83660   Biso      1.000     C          0.071934  
         C17       1.0000    0.56630   0.40940   0.07220   Biso      1.000     C          -0.098774           
         C18       1.0000    0.59670   0.38640   0.98580   Biso      1.000     C          -0.128111           
         C19       1.0000    0.60590   0.20800   0.95600   Biso      1.000     C          -0.154875           
         C20       1.0000    0.58080   0.23360   0.04220   Biso      1.000     C          -0.10008  
         C21       1.0000    0.55710   0.33390   0.10020   Biso      1.000     C          -0.015538           
         C22       1.0000    0.52140   0.35740   0.19000   Biso      1.000     C          0.603834  
         C23       1.0000    0.14460   0.57950   0.83660   Biso      1.000     C          0.07123099999999999           
         C24       1.0000    0.67850   0.55030   0.45780   Biso      1.000     C          0.669575  
         C25       1.0000    0.07000   0.17030   0.49800   Biso      1.000     C          0.63927   
         C26       1.0000    0.19320   0.31540   0.52240   Biso      1.000     C          -0.128762           
         C27       1.0000    0.17850   0.90750   0.45780   Biso      1.000     C          0.669978  
         C28       1.0000    0.38100   0.67600   0.34580   Biso      1.000     C          -0.190863           
         C29       1.0000    0.33280   0.71950   0.29160   Biso      1.000     C          0.22281399999999998           
         C30       1.0000    0.26310   0.79320   0.32680   Biso      1.000     C          -0.186318           
         C31       1.0000    0.25270   0.83200   0.42100   Biso      1.000     C          -0.011177           
         C32       1.0000    0.30680   0.79300   0.47760   Biso      1.000     C          -0.12897  
         C33       1.0000    0.37200   0.71490   0.43980   Biso      1.000     C          -0.017195           
         C34       1.0000    0.43000   0.67230   0.50200   Biso      1.000     C          0.639495  
         C35       1.0000    0.35540   0.74290   0.16340   Biso      1.000     C          0.071934  
         C36       1.0000    0.43370   0.59060   0.92780   Biso      1.000     C          -0.098774           
         C37       1.0000    0.40330   0.61360   0.01420   Biso      1.000     C          -0.12811  
         C38       1.0000    0.38020   0.71320   0.06980   Biso      1.000     C          0.080109  
         C39       1.0000    0.39410   0.79200   0.04400   Biso      1.000     C          -0.154873           
         C40       1.0000    0.41920   0.76640   0.95780   Biso      1.000     C          -0.10008  
         C41       1.0000    0.44290   0.66610   0.89980   Biso      1.000     C          -0.015538           
         C42       1.0000    0.47860   0.64260   0.81000   Biso      1.000     C          0.603834  
         C43       1.0000    0.32150   0.44970   0.54220   Biso      1.000     C          0.669575  
         C44       1.0000    0.11900   0.33020   0.65420   Biso      1.000     C          -0.19048099999999998          
         C45       1.0000    0.16720   0.42790   0.70840   Biso      1.000     C          0.22398800000000002           
         C46       1.0000    0.23690   0.46640   0.67320   Biso      1.000     C          -0.18648  
         C47       1.0000    0.24730   0.41100   0.57900   Biso      1.000     C          -0.012058           
         C48       1.0000    0.12800   0.27510   0.56020   Biso      1.000     C          -0.016947999999999998         
         C49       1.0000    0.88100   0.66980   0.34580   Biso      1.000     C          -0.19048099999999998          
         C50       1.0000    0.61980   0.28680   0.93020   Biso      1.000     C          0.080111  
         C51       1.0000    0.76310   0.53360   0.32680   Biso      1.000     C          -0.18648  
         C52       1.0000    0.83280   0.57210   0.29160   Biso      1.000     C          0.22398800000000002           
         C53       1.0000    0.94290   0.23370   0.89980   Biso      1.000     C          -0.015187           
         C54       1.0000    0.91920   0.19140   0.95780   Biso      1.000     C          -0.10116499999999999          
         C55       1.0000    0.89410   0.25200   0.04400   Biso      1.000     C          -0.156039           
         C56       1.0000    0.88020   0.35660   0.06980   Biso      1.000     C          0.078595  
         C57       1.0000    0.90330   0.40060   0.01420   Biso      1.000     C          -0.127564           
         C58       1.0000    0.97860   0.16740   0.81000   Biso      1.000     C          0.60306   
         C59       1.0000    0.85540   0.42050   0.16340   Biso      1.000     C          0.07123099999999999           
         C60       1.0000    0.93000   0.82970   0.50200   Biso      1.000     C          0.63927   
         C61       1.0000    0.87200   0.72490   0.43980   Biso      1.000     C          -0.016947           
         C62       1.0000    0.80680   0.68460   0.47760   Biso      1.000     C          -0.128762           
         C63       1.0000    0.75270   0.58900   0.42100   Biso      1.000     C          -0.012058           
         C64       1.0000    0.93370   0.33720   0.92780   Biso      1.000     C          -0.09840299999999999          
         H1        1.0000    0.92050   0.11970   0.93740   Biso      1.000     H          0.117219  
         H2        1.0000    0.77580   0.18390   0.71220   Biso      1.000     H          0.134537  
         H3        1.0000    0.70030   0.18130   0.45960   Biso      1.000     H          0.131644  
         H4        1.0000    0.61800   0.18600   0.80000   Biso      1.000     H          0.073266  
         H5        1.0000    0.55240   0.47730   0.11060   Biso      1.000     H          0.121371  
         H6        1.0000    0.60110   0.43850   0.96660   Biso      1.000     H          0.118149  
         H7        1.0000    0.61340   0.13890   0.91540   Biso      1.000     H          0.11726500000000001           
         H8        1.0000    0.79970   0.72170   0.54040   Biso      1.000     H          0.13139   
         H9        1.0000    0.91980   0.69900   0.31920   Biso      1.000     H          0.139072  
         H10       1.0000    0.72420   0.47170   0.28780   Biso      1.000     H          0.134321  
         H11       1.0000    0.88200   0.38600   0.20000   Biso      1.000     H          0.074274  
         H12       1.0000    0.94760   0.36670   0.88940   Biso      1.000     H          0.121621  
         H13       1.0000    0.89890   0.47190   0.03340   Biso      1.000     H          0.118567  
         H14       1.0000    0.88660   0.22350   0.08460   Biso      1.000     H          0.117825  
         H15       1.0000    0.57950   0.18230   0.06260   Biso      1.000     H          0.11582   
         H16       1.0000    0.07950   0.88030   0.06260   Biso      1.000     H          0.117218  
         H17       1.0000    0.58020   0.37980   0.68080   Biso      1.000     H          0.139757  
         H18       1.0000    0.10110   0.52810   0.96660   Biso      1.000     H          0.118567  
         H19       1.0000    0.11340   0.77650   0.91540   Biso      1.000     H          0.117825  
         H20       1.0000    0.41980   0.62020   0.31920   Biso      1.000     H          0.139757  
         H21       1.0000    0.22420   0.81610   0.28780   Biso      1.000     H          0.134537  
         H22       1.0000    0.38200   0.81400   0.20000   Biso      1.000     H          0.073266  
         H23       1.0000    0.44760   0.52270   0.88940   Biso      1.000     H          0.121371  
         H24       1.0000    0.39890   0.56150   0.03340   Biso      1.000     H          0.118149  
         H25       1.0000    0.29970   0.81870   0.54040   Biso      1.000     H          0.131644  
         H26       1.0000    0.42050   0.81770   0.93740   Biso      1.000     H          0.11582   
         H27       1.0000    0.08020   0.30100   0.68080   Biso      1.000     H          0.139072  
         H28       1.0000    0.27580   0.52830   0.71220   Biso      1.000     H          0.134321  
         H29       1.0000    0.20030   0.27830   0.45960   Biso      1.000     H          0.13139   
         H30       1.0000    0.11800   0.61400   0.80000   Biso      1.000     H          0.074275  
         H31       1.0000    0.05240   0.63330   0.11060   Biso      1.000     H          0.12162200000000001           
         H32       1.0000    0.38660   0.86110   0.08460   Biso      1.000     H          0.11726500000000001           
         N1        1.0000    0.35070   0.68140   0.19700   Biso      1.000     N          -0.26055500000000004          
         N2        1.0000    0.85070   0.51560   0.19700   Biso      1.000     N          -0.260813           
         N3        1.0000    0.64930   0.31860   0.80300   Biso      1.000     N          -0.26055500000000004          
         N4        1.0000    0.14930   0.48440   0.80300   Biso      1.000     N          -0.260813           
         O1        1.0000    0.87010   0.06100   0.59800   Biso      1.000     O          -0.643574           
         O2        1.0000    0.99410   0.79130   0.23780   Biso      1.000     O          -0.660088           
         O3        1.0000    0.01770   0.92630   0.21340   Biso      1.000     O          -0.6574369999999999           
         O4        1.0000    0.03860   0.11698   0.53536   Biso      1.000     O          -0.756502           
         O5        1.0000    0.05370   0.13940   0.41120   Biso      1.000     O          -0.594446           
         O6        1.0000    0.83100   0.06010   0.45700   Biso      1.000     O          -0.7121649999999999           
         O7        1.0000    0.37010   0.53700   0.59800   Biso      1.000     O          -0.6430739999999999           
         O8        1.0000    0.44630   0.72820   0.58880   Biso      1.000     O          -0.5947520000000001           
         O9        1.0000    0.46140   0.58162   0.46464   Biso      1.000     O          -0.7569170000000001           
         O10       1.0000    0.48230   0.71290   0.78660   Biso      1.000     O          -0.656959           
         O11       1.0000    0.50590   0.55350   0.76220   Biso      1.000     O          -0.660714           
         O12       1.0000    0.33100   0.39690   0.45700   Biso      1.000     O          -0.711873           
         O13       1.0000    0.55370   0.27180   0.41120   Biso      1.000     O          -0.5947520000000001           
         O14       1.0000    0.12990   0.93900   0.40200   Biso      1.000     O          -0.643574           
         O15       1.0000    0.51770   0.28710   0.21340   Biso      1.000     O          -0.65696  
         O16       1.0000    0.49410   0.44650   0.23780   Biso      1.000     O          -0.660714           
         O17       1.0000    0.62990   0.46300   0.40200   Biso      1.000     O          -0.6430739999999999           
         O18       1.0000    0.66900   0.60310   0.54300   Biso      1.000     O          -0.711874           
         O19       1.0000    0.94630   0.86060   0.58880   Biso      1.000     O          -0.594446           
         O20       1.0000    0.96140   0.88302   0.46464   Biso      1.000     O          -0.756502           
         O21       1.0000    0.98230   0.07370   0.78660   Biso      1.000     O          -0.6574369999999999           
         O22       1.0000    0.00590   0.20870   0.76220   Biso      1.000     O          -0.660089           
         O23       1.0000    0.16900   0.93990   0.54300   Biso      1.000     O          -0.7121649999999999           
         O24       1.0000    0.53860   0.41838   0.53536   Biso      1.000     O          -0.7569170000000001           
         Pr1       1.0000    0.54320   0.60559   0.63654   Biso      1.000     Pr          2.077688  
         Pr2       1.0000    0.95680   0.96905   0.36346   Biso      1.000     Pr          2.077185  
         Pr3       1.0000    0.45680   0.39441   0.36346   Biso      1.000     Pr          2.077688  
         Pr4       1.0000    0.04320   0.03095   0.63654   Biso      1.000     Pr          2.077185 