
##########################################################################
#               Crystallographic Information Format file
#               Produced by PyCifRW module
#
#  This is a CIF file.  CIF has been adopted by the International
#  Union of Crystallography as the standard for data archiving and
#  transmission.
#
#  For information on this file format, follow the CIF links at
#  http://www.iucr.org
##########################################################################

data_image0

_cell_length_a                          13.5097
_cell_length_b                          14.5685
_cell_length_c                          16.2487
_cell_angle_alpha                       116.634
_cell_angle_beta                        99.0357
_cell_angle_gamma                       90
_symmetry_space_group_name_H-M          'P 1'
_symmetry_int_tables_number             1
loop_
  _symmetry_equiv_pos_as_xyz
         'x, y, z' 
loop_
  _atom_site_label
  _atom_site_occupancy
  _atom_site_fract_x
  _atom_site_fract_y
  _atom_site_fract_z
  _atom_site_thermal_displace_type
  _atom_site_B_iso_or_equiv
  _atom_site_type_symbol
  _atom_site_charge
         C1        1.0000    0.33270   0.07300   0.29260   Biso      1.000     C          0.22016100000000002           
         C2        1.0000    0.30980   0.18490   0.47840   Biso      1.000     C          -0.127607           
         C3        1.0000    0.37300   0.22640   0.44060   Biso      1.000     C          -0.016113           
         C4        1.0000    0.01920   0.86090   0.18800   Biso      1.000     C          0.589278  
         C5        1.0000    0.05410   0.83450   0.09660   Biso      1.000     C          -0.013563999999999998         
         C6        1.0000    0.07460   0.73520   0.03980   Biso      1.000     C          -0.10178  
         C7        1.0000    0.10490   0.71010   0.95440   Biso      1.000     C          -0.150929           
         C8        1.0000    0.11640   0.78470   0.92660   Biso      1.000     C          0.061502  
         C9        1.0000    0.09960   0.88710   0.98460   Biso      1.000     C          -0.121406           
         C10       1.0000    0.06750   0.91010   0.07040   Biso      1.000     C          -0.103992           
         C11       1.0000    0.14560   0.75680   0.83440   Biso      1.000     C          0.075187  
         C12       1.0000    0.31660   0.58780   0.53900   Biso      1.000     C          0.66355   
         C13       1.0000    0.24460   0.66730   0.57720   Biso      1.000     C          -0.009214           
         C14       1.0000    0.23280   0.70380   0.67040   Biso      1.000     C          -0.184335           
         C15       1.0000    0.42900   0.32920   0.50160   Biso      1.000     C          0.633838  
         C16       1.0000    0.16730   0.78040   0.70740   Biso      1.000     C          0.22010500000000002           
         C17       1.0000    0.12700   0.78580   0.55940   Biso      1.000     C          -0.01636  
         C18       1.0000    0.19020   0.70650   0.52160   Biso      1.000     C          -0.128079           
         C19       1.0000    0.07100   0.82760   0.49840   Biso      1.000     C          0.633392  
         C20       1.0000    0.48080   0.67290   0.81200   Biso      1.000     C          0.589522  
         C21       1.0000    0.44590   0.73790   0.90340   Biso      1.000     C          -0.012106           
         C22       1.0000    0.42540   0.69540   0.96020   Biso      1.000     C          -0.101634           
         C23       1.0000    0.39510   0.75570   0.04560   Biso      1.000     C          -0.15279700000000002          
         C24       1.0000    0.38360   0.85810   0.07340   Biso      1.000     C          0.06325499999999999           
         C25       1.0000    0.40040   0.90250   0.01540   Biso      1.000     C          -0.123857           
         C26       1.0000    0.43250   0.83970   0.92960   Biso      1.000     C          -0.105038           
         C27       1.0000    0.35440   0.92240   0.16560   Biso      1.000     C          0.072306  
         C28       1.0000    0.18340   0.04880   0.46100   Biso      1.000     C          0.6642640000000001  
         C29       1.0000    0.25540   0.09010   0.42280   Biso      1.000     C          -0.009502           
         C30       1.0000    0.11630   0.82380   0.65260   Biso      1.000     C          -0.183906           
         C31       1.0000    0.98080   0.13910   0.81200   Biso      1.000     C          0.589278  
         C32       1.0000    0.94590   0.16550   0.90340   Biso      1.000     C          -0.013563999999999998         
         C33       1.0000    0.92540   0.26480   0.96020   Biso      1.000     C          -0.101781           
         C34       1.0000    0.57100   0.67080   0.49840   Biso      1.000     C          0.633838  
         C35       1.0000    0.69020   0.81510   0.52160   Biso      1.000     C          -0.127607           
         C36       1.0000    0.62700   0.77360   0.55940   Biso      1.000     C          -0.016113           
         C37       1.0000    0.61630   0.82880   0.65260   Biso      1.000     C          -0.184604           
         C38       1.0000    0.66730   0.92700   0.70740   Biso      1.000     C          0.22016100000000002           
         C39       1.0000    0.73280   0.96660   0.67040   Biso      1.000     C          -0.183833           
         C40       1.0000    0.74460   0.90990   0.57720   Biso      1.000     C          -0.009502           
         C41       1.0000    0.81660   0.95120   0.53900   Biso      1.000     C          0.6642640000000001  
         C42       1.0000    0.64560   0.07760   0.83440   Biso      1.000     C          0.072306  
         C43       1.0000    0.56750   0.16030   0.07040   Biso      1.000     C          -0.10504100000000001          
         C44       1.0000    0.59960   0.09750   0.98460   Biso      1.000     C          -0.123856           
         C45       1.0000    0.61640   0.14190   0.92660   Biso      1.000     C          0.063248  
         C46       1.0000    0.60490   0.24430   0.95440   Biso      1.000     C          -0.152789           
         C47       1.0000    0.57460   0.30460   0.03980   Biso      1.000     C          -0.101638           
         C48       1.0000    0.55410   0.26210   0.09660   Biso      1.000     C          -0.0121   
         C49       1.0000    0.51920   0.32710   0.18800   Biso      1.000     C          0.589522  
         C50       1.0000    0.92900   0.17240   0.50160   Biso      1.000     C          0.633392  
         C51       1.0000    0.80980   0.29350   0.47840   Biso      1.000     C          -0.128079           
         C52       1.0000    0.87300   0.21420   0.44060   Biso      1.000     C          -0.01636  
         C53       1.0000    0.88370   0.17620   0.34740   Biso      1.000     C          -0.183906           
         C54       1.0000    0.83270   0.21960   0.29260   Biso      1.000     C          0.220106  
         C55       1.0000    0.76720   0.29620   0.32960   Biso      1.000     C          -0.184335           
         C56       1.0000    0.75540   0.33270   0.42280   Biso      1.000     C          -0.009215000000000001         
         C57       1.0000    0.68340   0.41220   0.46100   Biso      1.000     C          0.6635489999999999  
         C58       1.0000    0.85440   0.24320   0.16560   Biso      1.000     C          0.075187  
         C59       1.0000    0.93250   0.08990   0.92960   Biso      1.000     C          -0.103992           
         C60       1.0000    0.90040   0.11290   0.01540   Biso      1.000     C          -0.121406           
         C61       1.0000    0.88360   0.21530   0.07340   Biso      1.000     C          0.061496  
         C62       1.0000    0.89510   0.28990   0.04560   Biso      1.000     C          -0.150923           
         C63       1.0000    0.26720   0.03340   0.32960   Biso      1.000     C          -0.183833           
         C64       1.0000    0.38370   0.17120   0.34740   Biso      1.000     C          -0.184604           
         Ce1       1.0000    0.95721   0.89535   0.36264   Biso      1.000     Ce          2.050853  
         Ce2       1.0000    0.54279   0.53271   0.63736   Biso      1.000     Ce          2.050718  
         Ce3       1.0000    0.04279   0.10465   0.63736   Biso      1.000     Ce          2.050853  
         Ce4       1.0000    0.45721   0.46729   0.36264   Biso      1.000     Ce          2.050718  
         H1        1.0000    0.65100   0.13400   0.81600   Biso      1.000     H          0.07578700000000001           
         H2        1.0000    0.44450   0.86810   0.89060   Biso      1.000     H          0.122956  
         H3        1.0000    0.39080   0.97160   0.03300   Biso      1.000     H          0.121724  
         H4        1.0000    0.38260   0.72620   0.08360   Biso      1.000     H          0.11475899999999999           
         H5        1.0000    0.43190   0.62560   0.94140   Biso      1.000     H          0.119565  
         H6        1.0000    0.15100   0.68200   0.81600   Biso      1.000     H          0.073374  
         H7        1.0000    0.07590   0.87750   0.67860   Biso      1.000     H          0.14046199999999998           
         H8        1.0000    0.23160   0.96970   0.29240   Biso      1.000     H          0.13507   
         H9        1.0000    0.26840   0.67730   0.70760   Biso      1.000     H          0.135197  
         H10       1.0000    0.05550   0.97750   0.10940   Biso      1.000     H          0.122552  
         H11       1.0000    0.10920   0.93860   0.96700   Biso      1.000     H          0.120448  
         H12       1.0000    0.11740   0.64260   0.91640   Biso      1.000     H          0.11408199999999999           
         H13       1.0000    0.19580   0.67990   0.45880   Biso      1.000     H          0.130503  
         H14       1.0000    0.42410   0.19890   0.32140   Biso      1.000     H          0.140251  
         H15       1.0000    0.06810   0.68420   0.05860   Biso      1.000     H          0.119807  
         H16       1.0000    0.34900   0.86600   0.18400   Biso      1.000     H          0.07578700000000001           
         H17       1.0000    0.30420   0.22110   0.54120   Biso      1.000     H          0.129847  
         H18       1.0000    0.69580   0.77890   0.45880   Biso      1.000     H          0.12984600000000002           
         H19       1.0000    0.76840   0.03030   0.70760   Biso      1.000     H          0.13507   
         H20       1.0000    0.55550   0.13190   0.10940   Biso      1.000     H          0.122956  
         H21       1.0000    0.60920   0.02840   0.96700   Biso      1.000     H          0.121724  
         H22       1.0000    0.61740   0.27380   0.91640   Biso      1.000     H          0.114758  
         H23       1.0000    0.56810   0.37440   0.05860   Biso      1.000     H          0.119565  
         H24       1.0000    0.57590   0.80110   0.67860   Biso      1.000     H          0.140251  
         H25       1.0000    0.80420   0.32010   0.54120   Biso      1.000     H          0.130503  
         H26       1.0000    0.92410   0.12250   0.32140   Biso      1.000     H          0.14046199999999998           
         H27       1.0000    0.73160   0.32270   0.29240   Biso      1.000     H          0.135197  
         H28       1.0000    0.94450   0.02250   0.89060   Biso      1.000     H          0.122552  
         H29       1.0000    0.93190   0.31580   0.94140   Biso      1.000     H          0.119807  
         H30       1.0000    0.89080   0.06140   0.03300   Biso      1.000     H          0.120448  
         H31       1.0000    0.84900   0.31800   0.18400   Biso      1.000     H          0.073374  
         H32       1.0000    0.88260   0.35740   0.08360   Biso      1.000     H          0.11408199999999999           
         N1        1.0000    0.84990   0.18070   0.19840   Biso      1.000     N          -0.26410500000000003          
         N2        1.0000    0.65010   0.98230   0.80160   Biso      1.000     N          -0.263171           
         N3        1.0000    0.15010   0.81930   0.80160   Biso      1.000     N          -0.26410500000000003          
         N4        1.0000    0.34990   0.01770   0.19840   Biso      1.000     N          -0.263171           
         O1        1.0000    0.00180   0.05037   0.76254   Biso      1.000     O          -0.62561  
         O2        1.0000    0.82560   0.90050   0.45420   Biso      1.000     O          -0.699462           
         O3        1.0000    0.86550   0.03698   0.59496   Biso      1.000     O          -0.64089  
         O4        1.0000    0.51220   0.42107   0.20974   Biso      1.000     O          -0.668277           
         O5        1.0000    0.49820   0.28783   0.23746   Biso      1.000     O          -0.6255970000000001           
         O6        1.0000    0.96280   0.08313   0.46326   Biso      1.000     O          -0.749222           
         O7        1.0000    0.94530   0.22632   0.58884   Biso      1.000     O          -0.589776           
         O8        1.0000    0.63450   0.44202   0.40504   Biso      1.000     O          -0.640628           
         O9        1.0000    0.67440   0.44630   0.54580   Biso      1.000     O          -0.6993729999999999           
         O10       1.0000    0.98780   0.21133   0.79026   Biso      1.000     O          -0.667864           
         O11       1.0000    0.46280   0.38013   0.46326   Biso      1.000     O          -0.749332           
         O12       1.0000    0.01220   0.78867   0.20974   Biso      1.000     O          -0.667864           
         O13       1.0000    0.13450   0.96302   0.40504   Biso      1.000     O          -0.64089  
         O14       1.0000    0.17440   0.09950   0.54580   Biso      1.000     O          -0.699462           
         O15       1.0000    0.48780   0.57893   0.79026   Biso      1.000     O          -0.668277           
         O16       1.0000    0.50180   0.71217   0.76254   Biso      1.000     O          -0.6255970000000001           
         O17       1.0000    0.03720   0.91687   0.53674   Biso      1.000     O          -0.749222           
         O18       1.0000    0.05470   0.77368   0.41116   Biso      1.000     O          -0.589776           
         O19       1.0000    0.36550   0.55798   0.59496   Biso      1.000     O          -0.640628           
         O20       1.0000    0.32560   0.55370   0.45420   Biso      1.000     O          -0.6993729999999999           
         O21       1.0000    0.99820   0.94963   0.23746   Biso      1.000     O          -0.62561  
         O22       1.0000    0.55470   0.63748   0.41116   Biso      1.000     O          -0.5903470000000001           
         O23       1.0000    0.44530   0.36252   0.58884   Biso      1.000     O          -0.5903470000000001           
         O24       1.0000    0.53720   0.61987   0.53674   Biso      1.000     O          -0.749332 