
##########################################################################
#               Crystallographic Information Format file
#               Produced by PyCifRW module
#
#  This is a CIF file.  CIF has been adopted by the International
#  Union of Crystallography as the standard for data archiving and
#  transmission.
#
#  For information on this file format, follow the CIF links at
#  http://www.iucr.org
##########################################################################

data_image0

_cell_length_a                          13.5515
_cell_length_b                          14.314
_cell_length_c                          16.0843
_cell_angle_alpha                       116.421
_cell_angle_beta                        98.7464
_cell_angle_gamma                       90
_symmetry_space_group_name_H-M          'P 1'
_symmetry_int_tables_number             1
loop_
  _symmetry_equiv_pos_as_xyz
         'x, y, z' 
loop_
  _atom_site_label
  _atom_site_occupancy
  _atom_site_fract_x
  _atom_site_fract_y
  _atom_site_fract_z
  _atom_site_thermal_displace_type
  _atom_site_B_iso_or_equiv
  _atom_site_type_symbol
  _atom_site_charge
         C1        1.0000    0.25200   0.09120   0.42040   Biso      1.000     C          -0.007258           
         C2        1.0000    0.91640   0.26360   0.95340   Biso      1.000     C          -0.10622  
         C3        1.0000    0.88630   0.28750   0.03960   Biso      1.000     C          -0.151198           
         C4        1.0000    0.87980   0.21300   0.06740   Biso      1.000     C          0.077798  
         C5        1.0000    0.90490   0.11200   0.01200   Biso      1.000     C          -0.123897           
         C6        1.0000    0.93510   0.08960   0.92700   Biso      1.000     C          -0.097856           
         C7        1.0000    0.94250   0.16440   0.89760   Biso      1.000     C          -0.009875           
         C8        1.0000    0.97900   0.14120   0.80700   Biso      1.000     C          0.591641  
         C9        1.0000    0.17630   0.04900   0.45720   Biso      1.000     C          0.674351  
         C10       1.0000    0.38160   0.17020   0.34460   Biso      1.000     C          -0.192122           
         C11       1.0000    0.33220   0.07400   0.29020   Biso      1.000     C          0.230085  
         C12       1.0000    0.26400   0.03410   0.32700   Biso      1.000     C          -0.186102           
         C13       1.0000    0.30670   0.18570   0.47720   Biso      1.000     C          -0.127391           
         C14       1.0000    0.37100   0.22620   0.43920   Biso      1.000     C          -0.01667  
         C15       1.0000    0.42870   0.33070   0.50060   Biso      1.000     C          0.649008  
         C16       1.0000    0.35460   0.92010   0.16200   Biso      1.000     C          0.076169  
         C17       1.0000    0.41640   0.68980   0.95340   Biso      1.000     C          -0.10495  
         C18       1.0000    0.38630   0.75210   0.03960   Biso      1.000     C          -0.151834           
         C19       1.0000    0.40490   0.90000   0.01200   Biso      1.000     C          -0.124786           
         C20       1.0000    0.43510   0.83740   0.92700   Biso      1.000     C          -0.096386           
         C21       1.0000    0.44250   0.73320   0.89760   Biso      1.000     C          -0.009543           
         C22       1.0000    0.47900   0.66580   0.80700   Biso      1.000     C          0.589127  
         C23       1.0000    0.85460   0.24190   0.16200   Biso      1.000     C          0.074704  
         C24       1.0000    0.32370   0.59180   0.54280   Biso      1.000     C          0.676179  
         C25       1.0000    0.92870   0.16990   0.50060   Biso      1.000     C          0.647252  
         C26       1.0000    0.80670   0.29150   0.47720   Biso      1.000     C          -0.12635  
         C27       1.0000    0.82370   0.95100   0.54280   Biso      1.000     C          0.674351  
         C28       1.0000    0.61840   0.82980   0.65540   Biso      1.000     C          -0.192122           
         C29       1.0000    0.66780   0.92600   0.70980   Biso      1.000     C          0.230085  
         C30       1.0000    0.73600   0.96590   0.67300   Biso      1.000     C          -0.186102           
         C31       1.0000    0.74800   0.90880   0.57960   Biso      1.000     C          -0.007259           
         C32       1.0000    0.69330   0.81430   0.52280   Biso      1.000     C          -0.127391           
         C33       1.0000    0.62900   0.77380   0.56080   Biso      1.000     C          -0.01667  
         C34       1.0000    0.57130   0.66930   0.49940   Biso      1.000     C          0.649008  
         C35       1.0000    0.64540   0.07990   0.83800   Biso      1.000     C          0.076169  
         C36       1.0000    0.58360   0.31020   0.04660   Biso      1.000     C          -0.10495  
         C37       1.0000    0.61370   0.24790   0.96040   Biso      1.000     C          -0.151834           
         C38       1.0000    0.62020   0.14560   0.93260   Biso      1.000     C          0.076655  
         C39       1.0000    0.59510   0.10000   0.98800   Biso      1.000     C          -0.124786           
         C40       1.0000    0.56490   0.16260   0.07300   Biso      1.000     C          -0.096386           
         C41       1.0000    0.55750   0.26680   0.10240   Biso      1.000     C          -0.009543           
         C42       1.0000    0.52100   0.33420   0.19300   Biso      1.000     C          0.589127  
         C43       1.0000    0.67630   0.40820   0.45720   Biso      1.000     C          0.676179  
         C44       1.0000    0.88160   0.17440   0.34460   Biso      1.000     C          -0.194282           
         C45       1.0000    0.83220   0.21620   0.29020   Biso      1.000     C          0.230447  
         C46       1.0000    0.76400   0.29290   0.32700   Biso      1.000     C          -0.186127           
         C47       1.0000    0.75200   0.32920   0.42040   Biso      1.000     C          -0.008453           
         C48       1.0000    0.87100   0.21300   0.43920   Biso      1.000     C          -0.016758           
         C49       1.0000    0.11840   0.82560   0.65540   Biso      1.000     C          -0.194282           
         C50       1.0000    0.37980   0.85440   0.06740   Biso      1.000     C          0.076655  
         C51       1.0000    0.23600   0.70710   0.67300   Biso      1.000     C          -0.186127           
         C52       1.0000    0.16780   0.78380   0.70980   Biso      1.000     C          0.230447  
         C53       1.0000    0.05750   0.83560   0.10240   Biso      1.000     C          -0.009888           
         C54       1.0000    0.06490   0.91040   0.07300   Biso      1.000     C          -0.097844           
         C55       1.0000    0.09510   0.88800   0.98800   Biso      1.000     C          -0.123896           
         C56       1.0000    0.12020   0.78700   0.93260   Biso      1.000     C          0.077769  
         C57       1.0000    0.11370   0.71250   0.96040   Biso      1.000     C          -0.151167           
         C58       1.0000    0.02100   0.85880   0.19300   Biso      1.000     C          0.591643  
         C59       1.0000    0.14540   0.75810   0.83800   Biso      1.000     C          0.074706  
         C60       1.0000    0.07130   0.83010   0.49940   Biso      1.000     C          0.647252  
         C61       1.0000    0.12900   0.78700   0.56080   Biso      1.000     C          -0.016758           
         C62       1.0000    0.19330   0.70850   0.52280   Biso      1.000     C          -0.12635  
         C63       1.0000    0.24800   0.67080   0.57960   Biso      1.000     C          -0.008453           
         C64       1.0000    0.08360   0.73640   0.04660   Biso      1.000     C          -0.106221           
         H1        1.0000    0.04940   0.97800   0.11060   Biso      1.000     H          0.120777  
         H2        1.0000    0.22750   0.97010   0.28900   Biso      1.000     H          0.133023  
         H3        1.0000    0.30080   0.22200   0.54040   Biso      1.000     H          0.132771  
         H4        1.0000    0.34400   0.87300   0.18800   Biso      1.000     H          0.073049  
         H5        1.0000    0.41900   0.61830   0.93360   Biso      1.000     H          0.118849  
         H6        1.0000    0.37070   0.72240   0.07740   Biso      1.000     H          0.115065  
         H7        1.0000    0.40140   0.97140   0.03180   Biso      1.000     H          0.118314  
         H8        1.0000    0.19920   0.68160   0.45960   Biso      1.000     H          0.13266   
         H9        1.0000    0.07760   0.87990   0.68120   Biso      1.000     H          0.142822  
         H10       1.0000    0.27250   0.68110   0.71100   Biso      1.000     H          0.133221  
         H11       1.0000    0.15600   0.68500   0.81200   Biso      1.000     H          0.073892  
         H12       1.0000    0.08100   0.68470   0.06640   Biso      1.000     H          0.119559  
         H13       1.0000    0.12930   0.64500   0.92260   Biso      1.000     H          0.1141    
         H14       1.0000    0.09860   0.93960   0.96820   Biso      1.000     H          0.11799   
         H15       1.0000    0.45060   0.86740   0.88940   Biso      1.000     H          0.119493  
         H16       1.0000    0.95060   0.02200   0.88940   Biso      1.000     H          0.120778  
         H17       1.0000    0.42240   0.19870   0.31880   Biso      1.000     H          0.14161   
         H18       1.0000    0.87070   0.35500   0.07740   Biso      1.000     H          0.114102  
         H19       1.0000    0.90140   0.06040   0.03180   Biso      1.000     H          0.11799   
         H20       1.0000    0.57760   0.80130   0.68120   Biso      1.000     H          0.14161   
         H21       1.0000    0.77250   0.02990   0.71100   Biso      1.000     H          0.133023  
         H22       1.0000    0.65600   0.12700   0.81200   Biso      1.000     H          0.073049  
         H23       1.0000    0.58100   0.38170   0.06640   Biso      1.000     H          0.118849  
         H24       1.0000    0.62930   0.27760   0.92260   Biso      1.000     H          0.115065  
         H25       1.0000    0.69920   0.77800   0.45960   Biso      1.000     H          0.132771  
         H26       1.0000    0.54940   0.13260   0.11060   Biso      1.000     H          0.119493  
         H27       1.0000    0.92240   0.12010   0.31880   Biso      1.000     H          0.142822  
         H28       1.0000    0.72750   0.31890   0.28900   Biso      1.000     H          0.133221  
         H29       1.0000    0.80080   0.31840   0.54040   Biso      1.000     H          0.13266   
         H30       1.0000    0.84400   0.31500   0.18800   Biso      1.000     H          0.073893  
         H31       1.0000    0.91900   0.31530   0.93360   Biso      1.000     H          0.119559  
         H32       1.0000    0.59860   0.02860   0.96820   Biso      1.000     H          0.118314  
         N1        1.0000    0.64870   0.98283   0.80306   Biso      1.000     N          -0.273605           
         N2        1.0000    0.14870   0.82023   0.80306   Biso      1.000     N          -0.273204           
         N3        1.0000    0.35130   0.01717   0.19694   Biso      1.000     N          -0.273605           
         N4        1.0000    0.85130   0.17977   0.19694   Biso      1.000     N          -0.273204           
         O1        1.0000    0.16650   0.10419   0.54258   Biso      1.000     O          -0.721009           
         O2        1.0000    0.00630   0.05132   0.75904   Biso      1.000     O          -0.651758           
         O3        1.0000    0.98190   0.21197   0.78254   Biso      1.000     O          -0.660329           
         O4        1.0000    0.95940   0.07873   0.46286   Biso      1.000     O          -0.767531           
         O5        1.0000    0.94680   0.22526   0.58792   Biso      1.000     O          -0.600457           
         O6        1.0000    0.12900   0.96304   0.40208   Biso      1.000     O          -0.630659           
         O7        1.0000    0.66650   0.43839   0.54258   Biso      1.000     O          -0.720698           
         O8        1.0000    0.55320   0.63734   0.41208   Biso      1.000     O          -0.601277           
         O9        1.0000    0.54060   0.61587   0.53714   Biso      1.000     O          -0.768162           
         O10       1.0000    0.51810   0.42943   0.21746   Biso      1.000     O          -0.658788           
         O11       1.0000    0.49370   0.29228   0.24096   Biso      1.000     O          -0.650666           
         O12       1.0000    0.62900   0.43904   0.40208   Biso      1.000     O          -0.631998           
         O13       1.0000    0.44680   0.36266   0.58792   Biso      1.000     O          -0.601277           
         O14       1.0000    0.83350   0.89581   0.45742   Biso      1.000     O          -0.721009           
         O15       1.0000    0.48190   0.57057   0.78254   Biso      1.000     O          -0.658788           
         O16       1.0000    0.50630   0.70772   0.75904   Biso      1.000     O          -0.650666           
         O17       1.0000    0.33350   0.56161   0.45742   Biso      1.000     O          -0.720698           
         O18       1.0000    0.37100   0.56096   0.59792   Biso      1.000     O          -0.631998           
         O19       1.0000    0.05320   0.77474   0.41208   Biso      1.000     O          -0.600457           
         O20       1.0000    0.04060   0.92127   0.53714   Biso      1.000     O          -0.767531           
         O21       1.0000    0.01810   0.78803   0.21746   Biso      1.000     O          -0.660329           
         O22       1.0000    0.99370   0.94868   0.24096   Biso      1.000     O          -0.651759           
         O23       1.0000    0.87100   0.03696   0.59792   Biso      1.000     O          -0.630659           
         O24       1.0000    0.45940   0.38413   0.46286   Biso      1.000     O          -0.768162           
         Sm1       1.0000    0.45794   0.46997   0.36508   Biso      1.000     Sm          2.073418  
         Sm2       1.0000    0.04206   0.10489   0.63492   Biso      1.000     Sm          2.074168  
         Sm3       1.0000    0.54206   0.53003   0.63492   Biso      1.000     Sm          2.073418  
         Sm4       1.0000    0.95794   0.89511   0.36508   Biso      1.000     Sm          2.074168 