
##########################################################################
#               Crystallographic Information Format file
#               Produced by PyCifRW module
#
#  This is a CIF file.  CIF has been adopted by the International
#  Union of Crystallography as the standard for data archiving and
#  transmission.
#
#  For information on this file format, follow the CIF links at
#  http://www.iucr.org
##########################################################################

data_image0

_cell_length_a                          13.5095
_cell_length_b                          14.5356
_cell_length_c                          16.2525
_cell_angle_alpha                       116.563
_cell_angle_beta                        99.0218
_cell_angle_gamma                       90
_symmetry_space_group_name_H-M          'P 1'
_symmetry_int_tables_number             1
loop_
  _symmetry_equiv_pos_as_xyz
         'x, y, z' 
loop_
  _atom_site_label
  _atom_site_occupancy
  _atom_site_fract_x
  _atom_site_fract_y
  _atom_site_fract_z
  _atom_site_thermal_displace_type
  _atom_site_B_iso_or_equiv
  _atom_site_type_symbol
  _atom_site_charge
         C1        1.0000    0.83300   0.07231   0.29322   Biso      1.000     C          0.22688699999999998           
         C2        1.0000    0.44470   0.16560   0.90420   Biso      1.000     C          -0.018739           
         C3        1.0000    0.48060   0.14021   0.81402   Biso      1.000     C          0.5823229999999999  
         C4        1.0000    0.68430   0.04726   0.46112   Biso      1.000     C          0.656796  
         C5        1.0000    0.81110   0.18492   0.47924   Biso      1.000     C          -0.131126           
         C6        1.0000    0.75590   0.08981   0.42342   Biso      1.000     C          -0.013093           
         C7        1.0000    0.76760   0.03376   0.32952   Biso      1.000     C          -0.192798           
         C8        1.0000    0.23240   0.96624   0.67048   Biso      1.000     C          -0.192803           
         C9        1.0000    0.88320   0.17083   0.34746   Biso      1.000     C          -0.182176           
         C10       1.0000    0.87360   0.22534   0.44108   Biso      1.000     C          -0.019791999999999997         
         C11       1.0000    0.42600   0.26640   0.96260   Biso      1.000     C          -0.104985           
         C12       1.0000    0.93060   0.32809   0.50238   Biso      1.000     C          0.625925  
         C13       1.0000    0.93250   0.84150   0.93220   Biso      1.000     C          -0.099222           
         C14       1.0000    0.90090   0.90270   0.01660   Biso      1.000     C          -0.12390799999999999          
         C15       1.0000    0.88090   0.85920   0.07220   Biso      1.000     C          0.087629  
         C16       1.0000    0.89280   0.75620   0.04520   Biso      1.000     C          -0.152552           
         C17       1.0000    0.92600   0.69620   0.96260   Biso      1.000     C          -0.103477           
         C18       1.0000    0.94470   0.73860   0.90420   Biso      1.000     C          -0.018979           
         C19       1.0000    0.98060   0.67381   0.81402   Biso      1.000     C          0.583812  
         C20       1.0000    0.81570   0.58614   0.53888   Biso      1.000     C          0.65635   
         C21       1.0000    0.68890   0.70568   0.52076   Biso      1.000     C          -0.13111099999999998          
         C22       1.0000    0.85620   0.92230   0.16600   Biso      1.000     C          0.074411  
         C23       1.0000    0.74410   0.66639   0.57658   Biso      1.000     C          -0.012884999999999999         
         C24       1.0000    0.39280   0.28900   0.04520   Biso      1.000     C          -0.151701           
         C25       1.0000    0.40090   0.11390   0.01660   Biso      1.000     C          -0.122172           
         C26       1.0000    0.12640   0.77466   0.55892   Biso      1.000     C          -0.019791           
         C27       1.0000    0.06940   0.67191   0.49762   Biso      1.000     C          0.625925  
         C28       1.0000    0.14380   0.07770   0.83400   Biso      1.000     C          0.074411  
         C29       1.0000    0.06750   0.15850   0.06780   Biso      1.000     C          -0.099222           
         C30       1.0000    0.09910   0.09730   0.98340   Biso      1.000     C          -0.12390699999999999          
         C31       1.0000    0.11910   0.14080   0.92780   Biso      1.000     C          0.087629  
         C32       1.0000    0.10720   0.24380   0.95480   Biso      1.000     C          -0.152552           
         C33       1.0000    0.07400   0.30380   0.03740   Biso      1.000     C          -0.103477           
         C34       1.0000    0.05530   0.26140   0.09580   Biso      1.000     C          -0.018979           
         C35       1.0000    0.38090   0.21300   0.07220   Biso      1.000     C          0.087622  
         C36       1.0000    0.01940   0.32619   0.18598   Biso      1.000     C          0.583812  
         C37       1.0000    0.31110   0.29432   0.47924   Biso      1.000     C          -0.13111099999999998          
         C38       1.0000    0.25590   0.33361   0.42342   Biso      1.000     C          -0.012884999999999999         
         C39       1.0000    0.26760   0.29576   0.32952   Biso      1.000     C          -0.192081           
         C40       1.0000    0.33300   0.22091   0.29322   Biso      1.000     C          0.226492  
         C41       1.0000    0.38320   0.17663   0.34746   Biso      1.000     C          -0.183785           
         C42       1.0000    0.37360   0.21574   0.44108   Biso      1.000     C          -0.019286           
         C43       1.0000    0.43060   0.17429   0.50238   Biso      1.000     C          0.62546   
         C44       1.0000    0.35620   0.24370   0.16600   Biso      1.000     C          0.073751  
         C45       1.0000    0.43250   0.09070   0.93220   Biso      1.000     C          -0.098995           
         C46       1.0000    0.18430   0.41386   0.46112   Biso      1.000     C          0.65635   
         C47       1.0000    0.73240   0.70424   0.67048   Biso      1.000     C          -0.192081           
         C48       1.0000    0.66700   0.77909   0.70678   Biso      1.000     C          0.226492  
         C49       1.0000    0.61680   0.82337   0.65254   Biso      1.000     C          -0.183785           
         C50       1.0000    0.31570   0.95274   0.53888   Biso      1.000     C          0.656796  
         C51       1.0000    0.18890   0.81508   0.52076   Biso      1.000     C          -0.131127           
         C52       1.0000    0.24410   0.91019   0.57658   Biso      1.000     C          -0.013093           
         C53       1.0000    0.11680   0.82917   0.65254   Biso      1.000     C          -0.182177           
         C54       1.0000    0.51940   0.85979   0.18598   Biso      1.000     C          0.5823229999999999  
         C55       1.0000    0.55530   0.83440   0.09580   Biso      1.000     C          -0.018739           
         C56       1.0000    0.57400   0.73360   0.03740   Biso      1.000     C          -0.104986           
         C57       1.0000    0.16700   0.92769   0.70678   Biso      1.000     C          0.226892  
         C58       1.0000    0.61910   0.78700   0.92780   Biso      1.000     C          0.087614  
         C59       1.0000    0.56750   0.90930   0.06780   Biso      1.000     C          -0.098996           
         C60       1.0000    0.64380   0.75630   0.83400   Biso      1.000     C          0.073751  
         C61       1.0000    0.60720   0.71100   0.95480   Biso      1.000     C          -0.151698           
         C62       1.0000    0.62640   0.78426   0.55892   Biso      1.000     C          -0.019286           
         C63       1.0000    0.59910   0.88610   0.98340   Biso      1.000     C          -0.12216500000000001          
         C64       1.0000    0.56940   0.82571   0.49762   Biso      1.000     C          0.62546   
         H1        1.0000    0.56410   0.68140   0.05420   Biso      1.000     H          0.12103399999999999           
         H2        1.0000    0.62160   0.64400   0.91720   Biso      1.000     H          0.116077  
         H3        1.0000    0.60650   0.93750   0.96520   Biso      1.000     H          0.119848  
         H4        1.0000    0.55440   0.97660   0.10580   Biso      1.000     H          0.121277  
         H5        1.0000    0.85100   0.89500   0.21000   Biso      1.000     H          0.07534199999999999           
         H6        1.0000    0.57770   0.87830   0.67880   Biso      1.000     H          0.13823   
         H7        1.0000    0.76890   0.67880   0.70820   Biso      1.000     H          0.132274  
         H8        1.0000    0.69400   0.67920   0.45800   Biso      1.000     H          0.129142  
         H9        1.0000    0.93590   0.62720   0.94580   Biso      1.000     H          0.120503  
         H10       1.0000    0.87840   0.72680   0.08280   Biso      1.000     H          0.116218  
         H11       1.0000    0.89350   0.97230   0.03480   Biso      1.000     H          0.12103499999999999           
         H12       1.0000    0.94560   0.87080   0.89420   Biso      1.000     H          0.121325  
         H13       1.0000    0.64900   0.68500   0.79000   Biso      1.000     H          0.07520700000000001           
         H14       1.0000    0.73110   0.97060   0.29180   Biso      1.000     H          0.132052  
         H15       1.0000    0.80600   0.22120   0.54200   Biso      1.000     H          0.12956800000000002           
         H16       1.0000    0.19400   0.77880   0.45800   Biso      1.000     H          0.12956800000000002           
         H17       1.0000    0.26890   0.02940   0.70820   Biso      1.000     H          0.132052  
         H18       1.0000    0.07770   0.80050   0.67880   Biso      1.000     H          0.137247  
         H19       1.0000    0.14900   0.10500   0.79000   Biso      1.000     H          0.07534199999999999           
         H20       1.0000    0.05440   0.12920   0.10580   Biso      1.000     H          0.121325  
         H21       1.0000    0.10650   0.02770   0.96520   Biso      1.000     H          0.12103499999999999           
         H22       1.0000    0.12160   0.27320   0.91720   Biso      1.000     H          0.116218  
         H23       1.0000    0.06410   0.37280   0.05420   Biso      1.000     H          0.120503  
         H24       1.0000    0.30600   0.32080   0.54200   Biso      1.000     H          0.129142  
         H25       1.0000    0.23110   0.32120   0.29180   Biso      1.000     H          0.132274  
         H26       1.0000    0.42230   0.12170   0.32120   Biso      1.000     H          0.13823   
         H27       1.0000    0.35100   0.31500   0.21000   Biso      1.000     H          0.07520700000000001           
         H28       1.0000    0.39350   0.06250   0.03480   Biso      1.000     H          0.119848  
         H29       1.0000    0.37840   0.35600   0.08280   Biso      1.000     H          0.116077  
         H30       1.0000    0.43590   0.31860   0.94580   Biso      1.000     H          0.12103399999999999           
         H31       1.0000    0.92230   0.19950   0.32120   Biso      1.000     H          0.137247  
         H32       1.0000    0.44560   0.02340   0.89420   Biso      1.000     H          0.121276  
         La1       1.0000    0.45671   0.89516   0.36161   Biso      1.000     La          1.925354  
         La2       1.0000    0.95671   0.46645   0.36161   Biso      1.000     La          1.925144  
         La3       1.0000    0.54329   0.10484   0.63839   Biso      1.000     La          1.925354  
         La4       1.0000    0.04329   0.53355   0.63839   Biso      1.000     La          1.925145  
         N1        1.0000    0.64870   0.81828   0.80016   Biso      1.000     N          -0.28746  
         N2        1.0000    0.85130   0.01812   0.19984   Biso      1.000     N          -0.287892           
         N3        1.0000    0.35130   0.18172   0.19984   Biso      1.000     N          -0.28746  
         N4        1.0000    0.14870   0.98188   0.80016   Biso      1.000     N          -0.287892           
         O1        1.0000    0.50150   0.05115   0.76430   Biso      1.000     O          -0.606817           
         O2        1.0000    0.44620   0.22751   0.58842   Biso      1.000     O          -0.562873           
         O3        1.0000    0.46270   0.08370   0.46360   Biso      1.000     O          -0.710378           
         O4        1.0000    0.13480   0.44280   0.40580   Biso      1.000     O          -0.618764           
         O5        1.0000    0.05380   0.63909   0.41158   Biso      1.000     O          -0.563244           
         O6        1.0000    0.01200   0.42043   0.20766   Biso      1.000     O          -0.6409060000000001           
         O7        1.0000    0.99850   0.28685   0.23570   Biso      1.000     O          -0.6072770000000001           
         O8        1.0000    0.48800   0.21277   0.79234   Biso      1.000     O          -0.6402939999999999           
         O9        1.0000    0.03730   0.62010   0.53640   Biso      1.000     O          -0.710476           
         O10       1.0000    0.17680   0.44718   0.54556   Biso      1.000     O          -0.667981           
         O11       1.0000    0.67680   0.09838   0.54556   Biso      1.000     O          -0.6684329999999999           
         O12       1.0000    0.94620   0.36091   0.58842   Biso      1.000     O          -0.563244           
         O13       1.0000    0.96270   0.37990   0.46360   Biso      1.000     O          -0.710476           
         O14       1.0000    0.36520   0.03700   0.59420   Biso      1.000     O          -0.61868  
         O15       1.0000    0.00150   0.71315   0.76430   Biso      1.000     O          -0.6072770000000001           
         O16       1.0000    0.98800   0.57957   0.79234   Biso      1.000     O          -0.6409060000000001           
         O17       1.0000    0.82320   0.55282   0.45444   Biso      1.000     O          -0.667981           
         O18       1.0000    0.86520   0.55720   0.59420   Biso      1.000     O          -0.618764           
         O19       1.0000    0.53730   0.91630   0.53640   Biso      1.000     O          -0.710378           
         O20       1.0000    0.55380   0.77249   0.41158   Biso      1.000     O          -0.562873           
         O21       1.0000    0.49850   0.94885   0.23570   Biso      1.000     O          -0.606817           
         O22       1.0000    0.51200   0.78723   0.20766   Biso      1.000     O          -0.6402939999999999           
         O23       1.0000    0.63480   0.96300   0.40580   Biso      1.000     O          -0.61868  
         O24       1.0000    0.32320   0.90162   0.45444   Biso      1.000     O          -0.668432 