
##########################################################################
#               Crystallographic Information Format file
#               Produced by PyCifRW module
#
#  This is a CIF file.  CIF has been adopted by the International
#  Union of Crystallography as the standard for data archiving and
#  transmission.
#
#  For information on this file format, follow the CIF links at
#  http://www.iucr.org
##########################################################################

data_image0

_cell_length_a                          9.1502
_cell_length_b                          9.3039
_cell_length_c                          9.3039
_cell_angle_alpha                       76.0066
_cell_angle_beta                        60.5448
_cell_angle_gamma                       60.5448
_symmetry_space_group_name_H-M          'P 1'
_symmetry_int_tables_number             1
loop_
  _symmetry_equiv_pos_as_xyz
         'x, y, z' 
loop_
  _atom_site_label
  _atom_site_occupancy
  _atom_site_fract_x
  _atom_site_fract_y
  _atom_site_fract_z
  _atom_site_thermal_displace_type
  _atom_site_B_iso_or_equiv
  _atom_site_type_symbol
  _atom_site_charge
         C1        1.0000    0.39400   0.02600   0.01600   Biso      1.000     C          0.372316  
         C2        1.0000    0.60600   0.97400   0.98400   Biso      1.000     C          0.372314  
         C3        1.0000    0.06400   0.52600   0.51600   Biso      1.000     C          0.372338  
         C4        1.0000    0.59000   0.01600   0.47400   Biso      1.000     C          0.372355  
         C5        1.0000    0.58000   0.48400   0.02600   Biso      1.000     C          0.372356  
         C6        1.0000    0.42000   0.51600   0.97400   Biso      1.000     C          0.372354  
         C7        1.0000    0.93600   0.47400   0.48400   Biso      1.000     C          0.372336  
         C8        1.0000    0.41000   0.98400   0.52600   Biso      1.000     C          0.372355  
         O1        1.0000    0.27350   0.11700   0.14300   Biso      1.000     O          -0.44553100000000007          
         O2        1.0000    0.36180   0.86300   0.04300   Biso      1.000     O          -0.552834           
         O3        1.0000    0.03350   0.38300   0.35700   Biso      1.000     O          -0.44555600000000006          
         O4        1.0000    0.63820   0.13700   0.95700   Biso      1.000     O          -0.552834           
         O5        1.0000    0.76780   0.63700   0.45700   Biso      1.000     O          -0.552847           
         O6        1.0000    0.41650   0.85700   0.61700   Biso      1.000     O          -0.445561           
         O7        1.0000    0.40480   0.95700   0.36300   Biso      1.000     O          -0.552834           
         O8        1.0000    0.77520   0.45700   0.86300   Biso      1.000     O          -0.552845           
         O9        1.0000    0.60950   0.35700   0.11700   Biso      1.000     O          -0.44556  
         O10       1.0000    0.22480   0.54300   0.13700   Biso      1.000     O          -0.552838           
         O11       1.0000    0.58350   0.14300   0.38300   Biso      1.000     O          -0.44556  
         O12       1.0000    0.23220   0.36300   0.54300   Biso      1.000     O          -0.5528430000000001           
         O13       1.0000    0.96650   0.61700   0.64300   Biso      1.000     O          -0.44555600000000006          
         O14       1.0000    0.39050   0.64300   0.88300   Biso      1.000     O          -0.445563           
         O15       1.0000    0.72650   0.88300   0.85700   Biso      1.000     O          -0.44553000000000004          
         O16       1.0000    0.59520   0.04300   0.63700   Biso      1.000     O          -0.552836           
         Rb1       1.0000    0.87500   0.25000   0.25000   Biso      1.000     Rb          0.9226129999999999  
         Rb2       1.0000    0.12500   0.75000   0.75000   Biso      1.000     Rb          0.9226120000000001  
         Y1        1.0000    0.37500   0.25000   0.25000   Biso      1.000     Y          1.581588  
         Y2        1.0000    0.62500   0.75000   0.75000   Biso      1.000     Y          1.581592 