
##########################################################################
#               Crystallographic Information Format file
#               Produced by PyCifRW module
#
#  This is a CIF file.  CIF has been adopted by the International
#  Union of Crystallography as the standard for data archiving and
#  transmission.
#
#  For information on this file format, follow the CIF links at
#  http://www.iucr.org
##########################################################################

data_image0

_cell_length_a                          8.6084
_cell_length_b                          9.0362
_cell_length_c                          9.0362
_cell_angle_alpha                       76.8859
_cell_angle_beta                        61.554
_cell_angle_gamma                       61.554
_symmetry_space_group_name_H-M          'P 1'
_symmetry_int_tables_number             1
loop_
  _symmetry_equiv_pos_as_xyz
         'x, y, z' 
loop_
  _atom_site_label
  _atom_site_occupancy
  _atom_site_fract_x
  _atom_site_fract_y
  _atom_site_fract_z
  _atom_site_thermal_displace_type
  _atom_site_B_iso_or_equiv
  _atom_site_type_symbol
  _atom_site_charge
         C1        1.0000    0.78600   0.23130   0.76870   Biso      1.000     C          0.5189520000000001  
         C2        1.0000    0.76990   0.27670   0.27670   Biso      1.000     C          0.48739499999999997           
         C3        1.0000    0.98270   0.23130   0.23130   Biso      1.000     C          0.5183979999999999  
         C4        1.0000    0.32330   0.72330   0.72330   Biso      1.000     C          0.48852799999999996           
         C5        1.0000    0.44530   0.76870   0.76870   Biso      1.000     C          0.517662  
         C6        1.0000    0.95340   0.27670   0.72330   Biso      1.000     C          0.48796300000000004           
         C7        1.0000    0.95340   0.72330   0.27670   Biso      1.000     C          0.487962  
         C8        1.0000    0.78600   0.76870   0.23130   Biso      1.000     C          0.5189520000000001  
         Cd1       1.0000    0.00000   0.00000   0.00000   Biso      1.000     Cd          1.0286440000000001  
         O1        1.0000    0.68480   0.31430   0.68570   Biso      1.000     O          -0.611699           
         O2        1.0000    0.06220   0.20320   0.79680   Biso      1.000     O          -0.5007590000000001           
         O3        1.0000    0.96290   0.38830   0.61170   Biso      1.000     O          -0.5252220000000001           
         O4        1.0000    0.73460   0.20320   0.20320   Biso      1.000     O          -0.499408           
         O5        1.0000    0.75600   0.12290   0.87710   Biso      1.000     O          -0.575762           
         O6        1.0000    0.68480   0.68570   0.31430   Biso      1.000     O          -0.611699           
         O7        1.0000    0.75600   0.87710   0.12290   Biso      1.000     O          -0.575762           
         O8        1.0000    0.42540   0.61170   0.61170   Biso      1.000     O          -0.525492           
         O9        1.0000    0.96290   0.61170   0.38830   Biso      1.000     O          -0.525223           
         O10       1.0000    0.62950   0.68570   0.68570   Biso      1.000     O          -0.612534           
         O11       1.0000    0.36690   0.87710   0.87710   Biso      1.000     O          -0.575426           
         O12       1.0000    0.64880   0.38830   0.38830   Biso      1.000     O          -0.527162           
         O13       1.0000    0.06220   0.79680   0.20320   Biso      1.000     O          -0.50076  
         O14       1.0000    0.00090   0.31430   0.31430   Biso      1.000     O          -0.610433           
         O15       1.0000    0.12110   0.12290   0.12290   Biso      1.000     O          -0.576184           
         O16       1.0000    0.14100   0.79680   0.79680   Biso      1.000     O          -0.500341           
         Sr1       1.0000    0.50000   0.00000   0.00000   Biso      1.000     Sr          1.634159  
         Zr1       1.0000    0.75000   0.50000   0.50000   Biso      1.000     Zr          2.165253 