
##########################################################################
#               Crystallographic Information Format file
#               Produced by PyCifRW module
#
#  This is a CIF file.  CIF has been adopted by the International
#  Union of Crystallography as the standard for data archiving and
#  transmission.
#
#  For information on this file format, follow the CIF links at
#  http://www.iucr.org
##########################################################################

data_image0

_cell_length_a                          8.524
_cell_length_b                          17.2139
_cell_length_c                          17.2139
_cell_angle_alpha                       120
_cell_angle_beta                        90
_cell_angle_gamma                       90
_symmetry_space_group_name_H-M          'P 1'
_symmetry_int_tables_number             1
loop_
  _symmetry_equiv_pos_as_xyz
         'x, y, z' 
loop_
  _atom_site_label
  _atom_site_occupancy
  _atom_site_fract_x
  _atom_site_fract_y
  _atom_site_fract_z
  _atom_site_thermal_displace_type
  _atom_site_B_iso_or_equiv
  _atom_site_type_symbol
  _atom_site_charge
         C1        1.0000    0.77683   0.70400   0.78590   Biso      1.000     C          -0.14390799999999998          
         C2        1.0000    0.98307   0.32433   0.89293   Biso      1.000     C          0.261827  
         C3        1.0000    0.11017   0.21410   0.91810   Biso      1.000     C          -0.141183           
         C4        1.0000    0.16897   0.14948   0.67590   Biso      1.000     C          0.550139  
         C5        1.0000    0.78483   0.57266   0.80082   Biso      1.000     C          -0.0038380000000000003        
         C6        1.0000    0.69713   0.52610   0.72218   Biso      1.000     C          -0.18749200000000002          
         C7        1.0000    0.69163   0.65808   0.70600   Biso      1.000     C          0.002761  
         C8        1.0000    0.82373   0.66207   0.83317   Biso      1.000     C          -0.100238           
         C9        1.0000    0.64973   0.56860   0.67567   Biso      1.000     C          0.260216  
         C10       1.0000    0.35027   0.89293   0.32433   Biso      1.000     C          0.26021   
         C11       1.0000    0.83563   0.52642   0.85052   Biso      1.000     C          0.550987  
         C12       1.0000    0.54850   0.80082   0.57266   Biso      1.000     C          -0.0035409999999999994        
         C13       1.0000    0.63620   0.72218   0.52610   Biso      1.000     C          -0.186641           
         C14       1.0000    0.15707   0.16683   0.82890   Biso      1.000     C          -0.101458           
         C15       1.0000    0.64170   0.70600   0.65808   Biso      1.000     C          0.0018510000000000002         
         C16       1.0000    0.68360   0.67567   0.56860   Biso      1.000     C          0.260748  
         C17       1.0000    0.55650   0.78590   0.70400   Biso      1.000     C          -0.142403           
         C18       1.0000    0.49770   0.85052   0.52642   Biso      1.000     C          0.550908  
         C19       1.0000    0.88183   0.42734   0.22816   Biso      1.000     C          -0.002211           
         C20       1.0000    0.96953   0.47390   0.19608   Biso      1.000     C          -0.186987           
         C21       1.0000    0.97503   0.34192   0.04792   Biso      1.000     C          -4.7e-05  
         C22       1.0000    0.84293   0.33793   0.17110   Biso      1.000     C          -0.101422           
         C23       1.0000    0.01693   0.43140   0.10707   Biso      1.000     C          0.261841  
         C24       1.0000    0.88983   0.29600   0.08190   Biso      1.000     C          -0.141202           
         C25       1.0000    0.83103   0.47358   0.32410   Biso      1.000     C          0.550124  
         C26       1.0000    0.21517   0.77184   0.19918   Biso      1.000     C          -0.003805           
         C27       1.0000    0.30287   0.80392   0.27782   Biso      1.000     C          -0.187473           
         C28       1.0000    0.50960   0.83317   0.66207   Biso      1.000     C          -0.100457           
         C29       1.0000    0.02497   0.29400   0.95208   Biso      1.000     C          -4.5e-05  
         C30       1.0000    0.03047   0.27782   0.80392   Biso      1.000     C          -0.18701700000000002          
         C31       1.0000    0.11817   0.19918   0.77184   Biso      1.000     C          -0.002219           
         C32       1.0000    0.16437   0.67590   0.14948   Biso      1.000     C          0.55098   
         C33       1.0000    0.22317   0.91810   0.21410   Biso      1.000     C          -0.14389200000000002          
         C34       1.0000    0.30837   0.95208   0.29400   Biso      1.000     C          0.002764  
         C35       1.0000    0.45150   0.22816   0.42734   Biso      1.000     C          -0.003496           
         C36       1.0000    0.36380   0.19608   0.47390   Biso      1.000     C          -0.186612           
         C37       1.0000    0.17627   0.82890   0.16683   Biso      1.000     C          -0.100211           
         C38       1.0000    0.49040   0.17110   0.33793   Biso      1.000     C          -0.10042899999999999          
         C39       1.0000    0.50230   0.32410   0.47358   Biso      1.000     C          0.5508930000000001  
         C40       1.0000    0.44350   0.08190   0.29600   Biso      1.000     C          -0.142394           
         C41       1.0000    0.31640   0.10707   0.43140   Biso      1.000     C          0.260738  
         C42       1.0000    0.35830   0.04792   0.34192   Biso      1.000     C          0.001831  
         H1        1.0000    0.33720   0.23450   0.53360   Biso      1.000     H          0.153626  
         H2        1.0000    0.54740   0.19250   0.30650   Biso      1.000     H          0.126858  
         H3        1.0000    0.46930   0.04390   0.23600   Biso      1.000     H          0.135139  
         H4        1.0000    0.00387   0.29910   0.76550   Biso      1.000     H          0.153936  
         H5        1.0000    0.21407   0.11400   0.80750   Biso      1.000     H          0.12708699999999998           
         H6        1.0000    0.13597   0.19210   0.95610   Biso      1.000     H          0.13506700000000002           
         H7        1.0000    0.67053   0.46640   0.70090   Biso      1.000     H          0.154513  
         H8        1.0000    0.88073   0.69350   0.88600   Biso      1.000     H          0.12681099999999998           
         H9        1.0000    0.66280   0.70090   0.46640   Biso      1.000     H          0.153608  
         H10       1.0000    0.45260   0.88600   0.69350   Biso      1.000     H          0.12683599999999998           
         H11       1.0000    0.99613   0.53360   0.23450   Biso      1.000     H          0.153927  
         H12       1.0000    0.78593   0.30650   0.19250   Biso      1.000     H          0.127084  
         H13       1.0000    0.86403   0.23600   0.04390   Biso      1.000     H          0.135061  
         H14       1.0000    0.32947   0.76550   0.29910   Biso      1.000     H          0.15453699999999998           
         H15       1.0000    0.11927   0.80750   0.11400   Biso      1.000     H          0.12683699999999998           
         H16       1.0000    0.19737   0.95610   0.19210   Biso      1.000     H          0.135697  
         H17       1.0000    0.80263   0.76400   0.80790   Biso      1.000     H          0.135669  
         H18       1.0000    0.53070   0.80790   0.76400   Biso      1.000     H          0.13512000000000002           
         Ni1       1.0000    0.66667   0.47466   0.47466   Biso      1.000     Ni          0.73021   
         Ni2       1.0000    0.00000   0.52534   0.00000   Biso      1.000     Ni          0.730156  
         Ni3       1.0000    0.33333   0.00000   0.52534   Biso      1.000     Ni          0.7302310000000001  
         O1        1.0000    0.19597   0.62765   0.18497   Biso      1.000     O          -0.358349           
         O2        1.0000    0.75983   0.42865   0.35116   Biso      1.000     O          -0.46071899999999993          
         O3        1.0000    0.10423   0.47723   0.07668   Biso      1.000     O          -0.341869           
         O4        1.0000    0.86263   0.55732   0.37235   Biso      1.000     O          -0.35884699999999997          
         O5        1.0000    0.42650   0.92251   0.57135   Biso      1.000     O          -0.46088100000000004          
         O6        1.0000    0.77090   0.59945   0.52277   Biso      1.000     O          -0.34168899999999996          
         O7        1.0000    0.52930   0.81503   0.44268   Biso      1.000     O          -0.358712           
         O8        1.0000    0.90683   0.57135   0.92251   Biso      1.000     O          -0.460962           
         O9        1.0000    0.56243   0.52277   0.59945   Biso      1.000     O          -0.341171           
         O10       1.0000    0.80403   0.44268   0.81503   Biso      1.000     O          -0.358292           
         O11       1.0000    0.24017   0.07749   0.64884   Biso      1.000     O          -0.460672           
         O12       1.0000    0.89577   0.40055   0.92332   Biso      1.000     O          -0.341807           
         O13       1.0000    0.13737   0.18497   0.62765   Biso      1.000     O          -0.35873299999999997          
         O14       1.0000    0.57350   0.35116   0.42865   Biso      1.000     O          -0.460929           
         O15       1.0000    0.22910   0.07668   0.47723   Biso      1.000     O          -0.34162800000000004          
         O16       1.0000    0.47070   0.37235   0.55732   Biso      1.000     O          -0.358871           
         O17       1.0000    0.43757   0.92332   0.40055   Biso      1.000     O          -0.34110799999999997          
         O18       1.0000    0.09317   0.64884   0.07749   Biso      1.000     O          -0.46097 