
##########################################################################
#               Crystallographic Information Format file
#               Produced by PyCifRW module
#
#  This is a CIF file.  CIF has been adopted by the International
#  Union of Crystallography as the standard for data archiving and
#  transmission.
#
#  For information on this file format, follow the CIF links at
#  http://www.iucr.org
##########################################################################

data_image0

_cell_length_a                          22.9539
_cell_length_b                          22.9539
_cell_length_c                          22.9539
_cell_angle_alpha                       60
_cell_angle_beta                        60
_cell_angle_gamma                       60
_symmetry_space_group_name_H-M          'P 1'
_symmetry_int_tables_number             1
loop_
  _symmetry_equiv_pos_as_xyz
         'x, y, z' 
loop_
  _atom_site_label
  _atom_site_occupancy
  _atom_site_fract_x
  _atom_site_fract_y
  _atom_site_fract_z
  _atom_site_thermal_displace_type
  _atom_site_B_iso_or_equiv
  _atom_site_type_symbol
  _atom_site_charge
         C1        1.0000    0.00000   0.74528   0.25472   Biso      1.000     C          0.073572  
         C2        1.0000    0.00000   0.62590   0.00000   Biso      1.000     C          -0.142498           
         C3        1.0000    0.00000   0.67992   0.00000   Biso      1.000     C          -0.124471           
         C4        1.0000    0.00000   0.74528   0.00000   Biso      1.000     C          0.073571  
         C5        1.0000    0.00000   0.43944   0.00000   Biso      1.000     C          0.153387  
         C6        1.0000    0.00000   0.37410   0.00000   Biso      1.000     C          -0.142498           
         C7        1.0000    0.00000   0.32008   0.00000   Biso      1.000     C          -0.124471           
         C8        1.0000    0.00000   0.25472   0.00000   Biso      1.000     C          0.073572  
         C9        1.0000    0.50680   0.56736   0.96292   Biso      1.000     C          -0.135947           
         C10       1.0000    0.25379   0.81399   0.96611   Biso      1.000     C          -0.071888           
         C11       1.0000    0.56736   0.50680   0.96292   Biso      1.000     C          -0.135943           
         C12       1.0000    0.81399   0.25379   0.96611   Biso      1.000     C          -0.071888           
         C13       1.0000    0.96292   0.96292   0.50680   Biso      1.000     C          -0.135947           
         C14       1.0000    0.96611   0.96611   0.25379   Biso      1.000     C          -0.071883           
         C15       1.0000    0.96292   0.96292   0.56736   Biso      1.000     C          -0.135943           
         C16       1.0000    0.96611   0.96611   0.81399   Biso      1.000     C          -0.071882           
         C17       1.0000    0.00000   0.56056   0.00000   Biso      1.000     C          0.153387  
         C18       1.0000    0.74528   0.00000   0.25472   Biso      1.000     C          0.073584  
         C19       1.0000    0.67992   0.00000   0.32008   Biso      1.000     C          -0.124562           
         C20       1.0000    0.62590   0.00000   0.37410   Biso      1.000     C          -0.142407           
         C21       1.0000    0.25472   0.00000   0.00000   Biso      1.000     C          0.073583  
         C22       1.0000    0.56056   0.00000   0.00000   Biso      1.000     C          0.153387  
         C23       1.0000    0.62590   0.00000   0.00000   Biso      1.000     C          -0.142498           
         C24       1.0000    0.67992   0.00000   0.00000   Biso      1.000     C          -0.124471           
         C25       1.0000    0.74528   0.00000   0.00000   Biso      1.000     C          0.073571  
         C26       1.0000    0.00000   0.37410   0.62590   Biso      1.000     C          -0.142497           
         C27       1.0000    0.00000   0.32008   0.67992   Biso      1.000     C          -0.124473           
         C28       1.0000    0.50680   0.96292   0.96292   Biso      1.000     C          -0.135948           
         C29       1.0000    0.00000   0.25472   0.74528   Biso      1.000     C          0.073572  
         C30       1.0000    0.00000   0.62590   0.37410   Biso      1.000     C          -0.142497           
         C31       1.0000    0.00000   0.67992   0.32008   Biso      1.000     C          -0.124473           
         C32       1.0000    0.43944   0.00000   0.56056   Biso      1.000     C          0.153387  
         C33       1.0000    0.37410   0.00000   0.62590   Biso      1.000     C          -0.142497           
         C34       1.0000    0.32008   0.00000   0.67992   Biso      1.000     C          -0.124473           
         C35       1.0000    0.25472   0.00000   0.74528   Biso      1.000     C          0.073572  
         C36       1.0000    0.56056   0.00000   0.43944   Biso      1.000     C          0.153376  
         C37       1.0000    0.00000   0.56056   0.43944   Biso      1.000     C          0.153386  
         C38       1.0000    0.25379   0.96611   0.96611   Biso      1.000     C          -0.071872           
         C39       1.0000    0.56736   0.96292   0.96292   Biso      1.000     C          -0.135942           
         C40       1.0000    0.81399   0.96611   0.96611   Biso      1.000     C          -0.071872           
         C41       1.0000    0.03708   0.49320   0.03708   Biso      1.000     C          -0.135947           
         C42       1.0000    0.03389   0.74621   0.03389   Biso      1.000     C          -0.071876           
         C43       1.0000    0.03708   0.43264   0.03708   Biso      1.000     C          -0.135943           
         C44       1.0000    0.03389   0.18601   0.03389   Biso      1.000     C          -0.071876           
         C45       1.0000    0.49320   0.03708   0.43264   Biso      1.000     C          -0.135947           
         C46       1.0000    0.74621   0.03389   0.18601   Biso      1.000     C          -0.071874           
         C47       1.0000    0.43264   0.03708   0.49320   Biso      1.000     C          -0.135942           
         C48       1.0000    0.03389   0.03389   0.18601   Biso      1.000     C          -0.071886           
         C49       1.0000    0.18601   0.03389   0.74621   Biso      1.000     C          -0.071875           
         C50       1.0000    0.03389   0.74621   0.18601   Biso      1.000     C          -0.071874           
         C51       1.0000    0.03708   0.43264   0.49320   Biso      1.000     C          -0.135947           
         C52       1.0000    0.03389   0.18601   0.74621   Biso      1.000     C          -0.071875           
         C53       1.0000    0.43264   0.03708   0.03708   Biso      1.000     C          -0.135948           
         C54       1.0000    0.18601   0.03389   0.03389   Biso      1.000     C          -0.071876           
         C55       1.0000    0.49320   0.03708   0.03708   Biso      1.000     C          -0.135942           
         C56       1.0000    0.74621   0.03389   0.03389   Biso      1.000     C          -0.071876           
         C57       1.0000    0.03708   0.49320   0.43264   Biso      1.000     C          -0.135942           
         C58       1.0000    0.32008   0.00000   0.00000   Biso      1.000     C          -0.124561           
         C59       1.0000    0.03708   0.03708   0.43264   Biso      1.000     C          -0.135946           
         C60       1.0000    0.03708   0.03708   0.49320   Biso      1.000     C          -0.135943           
         C61       1.0000    0.96292   0.50680   0.56736   Biso      1.000     C          -0.135946           
         C62       1.0000    0.96611   0.25379   0.81399   Biso      1.000     C          -0.071871           
         C63       1.0000    0.96292   0.56736   0.50680   Biso      1.000     C          -0.135943           
         C64       1.0000    0.96611   0.81399   0.25379   Biso      1.000     C          -0.071872           
         C65       1.0000    0.50680   0.96292   0.56736   Biso      1.000     C          -0.135945           
         C66       1.0000    0.25379   0.96611   0.81399   Biso      1.000     C          -0.071871           
         C67       1.0000    0.56736   0.96292   0.50680   Biso      1.000     C          -0.135944           
         C68       1.0000    0.03389   0.03389   0.74621   Biso      1.000     C          -0.071887           
         C69       1.0000    0.81399   0.96611   0.25379   Biso      1.000     C          -0.071871           
         C70       1.0000    0.96611   0.81399   0.96611   Biso      1.000     C          -0.071872           
         C71       1.0000    0.96292   0.50680   0.96292   Biso      1.000     C          -0.135947           
         C72       1.0000    0.96611   0.25379   0.96611   Biso      1.000     C          -0.071872           
         C73       1.0000    0.43264   0.49320   0.03708   Biso      1.000     C          -0.135947           
         C74       1.0000    0.18601   0.74621   0.03389   Biso      1.000     C          -0.071885           
         C75       1.0000    0.49320   0.43264   0.03708   Biso      1.000     C          -0.135943           
         C76       1.0000    0.74621   0.18601   0.03389   Biso      1.000     C          -0.071885           
         C77       1.0000    0.96292   0.56736   0.96292   Biso      1.000     C          -0.135943           
         C78       1.0000    0.37410   0.00000   0.00000   Biso      1.000     C          -0.142408           
         C79       1.0000    0.00000   0.43944   0.56056   Biso      1.000     C          0.153387  
         C80       1.0000    0.00000   0.00000   0.74528   Biso      1.000     C          0.073592  
         C81       1.0000    0.43944   0.56056   0.00000   Biso      1.000     C          0.153387  
         C82       1.0000    0.37410   0.62590   0.00000   Biso      1.000     C          -0.142498           
         C83       1.0000    0.32008   0.67992   0.00000   Biso      1.000     C          -0.124474           
         C84       1.0000    0.25472   0.74528   0.00000   Biso      1.000     C          0.073591  
         C85       1.0000    0.56056   0.43944   0.00000   Biso      1.000     C          0.153386  
         C86       1.0000    0.62590   0.37410   0.00000   Biso      1.000     C          -0.142498           
         C87       1.0000    0.67992   0.32008   0.00000   Biso      1.000     C          -0.124474           
         C88       1.0000    0.74528   0.25472   0.00000   Biso      1.000     C          0.073591  
         C89       1.0000    0.43944   0.00000   0.00000   Biso      1.000     C          0.153376  
         C90       1.0000    0.00000   0.00000   0.37410   Biso      1.000     C          -0.142495           
         C91       1.0000    0.00000   0.00000   0.32008   Biso      1.000     C          -0.124473           
         C92       1.0000    0.00000   0.00000   0.25472   Biso      1.000     C          0.073592  
         C93       1.0000    0.00000   0.00000   0.56056   Biso      1.000     C          0.153386  
         C94       1.0000    0.00000   0.00000   0.62590   Biso      1.000     C          -0.142495           
         C95       1.0000    0.00000   0.00000   0.67992   Biso      1.000     C          -0.124473           
         C96       1.0000    0.00000   0.00000   0.43944   Biso      1.000     C          0.153387  
         H1        1.0000    0.82905   0.93827   0.29441   Biso      1.000     H          0.124577  
         H2        1.0000    0.29441   0.93827   0.93827   Biso      1.000     H          0.124576  
         H3        1.0000    0.61341   0.93757   0.93757   Biso      1.000     H          0.123927  
         H4        1.0000    0.82905   0.93827   0.93827   Biso      1.000     H          0.124575  
         H5        1.0000    0.93757   0.51145   0.61341   Biso      1.000     H          0.123927  
         H6        1.0000    0.51145   0.93757   0.61341   Biso      1.000     H          0.123927  
         H7        1.0000    0.93757   0.61341   0.51145   Biso      1.000     H          0.123927  
         H8        1.0000    0.93827   0.82905   0.29441   Biso      1.000     H          0.124576  
         H9        1.0000    0.29441   0.93827   0.82905   Biso      1.000     H          0.124577  
         H10       1.0000    0.51145   0.93757   0.93757   Biso      1.000     H          0.123926  
         H11       1.0000    0.93827   0.29441   0.82905   Biso      1.000     H          0.124577  
         H12       1.0000    0.93827   0.93827   0.82905   Biso      1.000     H          0.124578  
         H13       1.0000    0.09342   0.09342   0.90658   Biso      1.000     H          0.432877  
         H14       1.0000    0.93827   0.93827   0.29441   Biso      1.000     H          0.124577  
         H15       1.0000    0.93757   0.93757   0.51145   Biso      1.000     H          0.123927  
         H16       1.0000    0.82905   0.29441   0.93827   Biso      1.000     H          0.124577  
         H17       1.0000    0.61341   0.51145   0.93757   Biso      1.000     H          0.123927  
         H18       1.0000    0.29441   0.82905   0.93827   Biso      1.000     H          0.124577  
         H19       1.0000    0.51145   0.61341   0.93757   Biso      1.000     H          0.123927  
         H20       1.0000    0.93757   0.61341   0.93757   Biso      1.000     H          0.123927  
         H21       1.0000    0.90658   0.90658   0.09342   Biso      1.000     H          0.432877  
         H22       1.0000    0.09342   0.90658   0.09342   Biso      1.000     H          0.432877  
         H23       1.0000    0.90658   0.09342   0.90658   Biso      1.000     H          0.432877  
         H24       1.0000    0.09342   0.90658   0.90658   Biso      1.000     H          0.432877  
         H25       1.0000    0.90658   0.09342   0.09342   Biso      1.000     H          0.432877  
         H26       1.0000    0.93757   0.93757   0.61341   Biso      1.000     H          0.123927  
         H27       1.0000    0.93827   0.82905   0.93827   Biso      1.000     H          0.124576  
         H28       1.0000    0.61341   0.93757   0.51145   Biso      1.000     H          0.123926  
         H29       1.0000    0.93827   0.29441   0.93827   Biso      1.000     H          0.124576  
         H30       1.0000    0.93757   0.51145   0.93757   Biso      1.000     H          0.123927  
         H31       1.0000    0.48855   0.06243   0.06243   Biso      1.000     H          0.123927  
         H32       1.0000    0.17095   0.06173   0.06173   Biso      1.000     H          0.124576  
         H33       1.0000    0.38659   0.06243   0.06243   Biso      1.000     H          0.123926  
         H34       1.0000    0.06173   0.17095   0.70559   Biso      1.000     H          0.124577  
         H35       1.0000    0.06243   0.38659   0.48855   Biso      1.000     H          0.123927  
         H36       1.0000    0.06173   0.70559   0.17095   Biso      1.000     H          0.124577  
         H37       1.0000    0.06243   0.48855   0.38659   Biso      1.000     H          0.123927  
         H38       1.0000    0.17095   0.06173   0.70559   Biso      1.000     H          0.124576  
         H39       1.0000    0.38659   0.06243   0.48855   Biso      1.000     H          0.123927  
         H40       1.0000    0.70559   0.06173   0.17095   Biso      1.000     H          0.124577  
         H41       1.0000    0.48855   0.06243   0.38659   Biso      1.000     H          0.123927  
         H42       1.0000    0.70559   0.06173   0.06173   Biso      1.000     H          0.124576  
         H43       1.0000    0.06243   0.38659   0.06243   Biso      1.000     H          0.123927  
         H44       1.0000    0.06173   0.70559   0.06173   Biso      1.000     H          0.124576  
         H45       1.0000    0.06243   0.48855   0.06243   Biso      1.000     H          0.123927  
         H46       1.0000    0.06173   0.06173   0.17095   Biso      1.000     H          0.124578  
         H47       1.0000    0.06243   0.06243   0.38659   Biso      1.000     H          0.123927  
         H48       1.0000    0.06173   0.06173   0.70559   Biso      1.000     H          0.124577  
         H49       1.0000    0.06243   0.06243   0.48855   Biso      1.000     H          0.123927  
         H50       1.0000    0.70559   0.17095   0.06173   Biso      1.000     H          0.124577  
         H51       1.0000    0.48855   0.38659   0.06243   Biso      1.000     H          0.123927  
         H52       1.0000    0.17095   0.70559   0.06173   Biso      1.000     H          0.124576  
         H53       1.0000    0.38659   0.48855   0.06243   Biso      1.000     H          0.123927  
         H54       1.0000    0.06173   0.17095   0.06173   Biso      1.000     H          0.124576  
         N1        1.0000    0.85739   0.97905   0.97905   Biso      1.000     N          -0.1712   
         N2        1.0000    0.97905   0.18451   0.85739   Biso      1.000     N          -0.171195           
         N3        1.0000    0.97905   0.85739   0.18451   Biso      1.000     N          -0.171195           
         N4        1.0000    0.18451   0.97905   0.85739   Biso      1.000     N          -0.171195           
         N5        1.0000    0.81549   0.14261   0.02095   Biso      1.000     N          -0.1712   
         N6        1.0000    0.97905   0.85739   0.97905   Biso      1.000     N          -0.1712   
         N7        1.0000    0.97905   0.18451   0.97905   Biso      1.000     N          -0.1712   
         N8        1.0000    0.14261   0.81549   0.02095   Biso      1.000     N          -0.171199           
         N9        1.0000    0.18451   0.97905   0.97905   Biso      1.000     N          -0.171201           
         N10       1.0000    0.85739   0.97905   0.18451   Biso      1.000     N          -0.171196           
         N11       1.0000    0.97905   0.97905   0.85739   Biso      1.000     N          -0.171193           
         N12       1.0000    0.02095   0.14261   0.81549   Biso      1.000     N          -0.171167           
         N13       1.0000    0.85739   0.18451   0.97905   Biso      1.000     N          -0.171169           
         N14       1.0000    0.18451   0.85739   0.97905   Biso      1.000     N          -0.171169           
         N15       1.0000    0.81549   0.02095   0.02095   Biso      1.000     N          -0.171171           
         N16       1.0000    0.14261   0.02095   0.02095   Biso      1.000     N          -0.171173           
         N17       1.0000    0.02095   0.81549   0.14261   Biso      1.000     N          -0.171165           
         N18       1.0000    0.14261   0.02095   0.81549   Biso      1.000     N          -0.171167           
         N19       1.0000    0.81549   0.02095   0.14261   Biso      1.000     N          -0.171166           
         N20       1.0000    0.02095   0.14261   0.02095   Biso      1.000     N          -0.171171           
         N21       1.0000    0.02095   0.02095   0.81549   Biso      1.000     N          -0.171166           
         N22       1.0000    0.02095   0.81549   0.02095   Biso      1.000     N          -0.171171           
         N23       1.0000    0.97905   0.97905   0.18451   Biso      1.000     N          -0.171194           
         N24       1.0000    0.02095   0.02095   0.14261   Biso      1.000     N          -0.171165           
         Ni1       1.0000    0.87280   0.04240   0.04240   Biso      1.000     Ni          0.720913  
         Ni2       1.0000    0.95760   0.95760   0.95760   Biso      1.000     Ni          0.720919  
         Ni3       1.0000    0.95760   0.95760   0.12720   Biso      1.000     Ni          0.720919  
         Ni4       1.0000    0.12720   0.95760   0.95760   Biso      1.000     Ni          0.720916  
         Ni5       1.0000    0.95760   0.12720   0.95760   Biso      1.000     Ni          0.720916  
         Ni6       1.0000    0.04240   0.04240   0.04240   Biso      1.000     Ni          0.720911  
         Ni7       1.0000    0.04240   0.04240   0.87280   Biso      1.000     Ni          0.720912  
         Ni8       1.0000    0.04240   0.87280   0.04240   Biso      1.000     Ni          0.720912  
         O1        1.0000    0.93584   0.06416   0.06416   Biso      1.000     O          -0.792081           
         O2        1.0000    0.06416   0.93584   0.93584   Biso      1.000     O          -0.792081           
         O3        1.0000    0.93584   0.06416   0.93584   Biso      1.000     O          -0.79208  
         O4        1.0000    0.06416   0.93584   0.06416   Biso      1.000     O          -0.79208  
         O5        1.0000    0.93584   0.93584   0.06416   Biso      1.000     O          -0.792081           
         O6        1.0000    0.06416   0.06416   0.93584   Biso      1.000     O          -0.79208 