
##########################################################################
#               Crystallographic Information Format file
#               Produced by PyCifRW module
#
#  This is a CIF file.  CIF has been adopted by the International
#  Union of Crystallography as the standard for data archiving and
#  transmission.
#
#  For information on this file format, follow the CIF links at
#  http://www.iucr.org
##########################################################################

data_image0

_cell_length_a                          17.9465
_cell_length_b                          17.9465
_cell_length_c                          17.9465
_cell_angle_alpha                       60
_cell_angle_beta                        60
_cell_angle_gamma                       60
_symmetry_space_group_name_H-M          'P 1'
_symmetry_int_tables_number             1
loop_
  _symmetry_equiv_pos_as_xyz
         'x, y, z' 
loop_
  _atom_site_label
  _atom_site_occupancy
  _atom_site_fract_x
  _atom_site_fract_y
  _atom_site_fract_z
  _atom_site_thermal_displace_type
  _atom_site_B_iso_or_equiv
  _atom_site_type_symbol
  _atom_site_charge
         C1        1.0000    0.65824   0.00000   0.34176   Biso      1.000     C          -0.021655           
         C2        1.0000    0.95665   0.34055   0.74615   Biso      1.000     C          -0.077632           
         C3        1.0000    0.95257   0.50871   0.58615   Biso      1.000     C          -0.147092           
         C4        1.0000    0.74615   0.95665   0.95665   Biso      1.000     C          -0.077635           
         C5        1.0000    0.58615   0.95257   0.95257   Biso      1.000     C          -0.147091           
         C6        1.0000    0.34055   0.95665   0.95665   Biso      1.000     C          -0.077636           
         C7        1.0000    0.50871   0.95257   0.95257   Biso      1.000     C          -0.147086           
         C8        1.0000    0.95665   0.95665   0.74615   Biso      1.000     C          -0.077632           
         C9        1.0000    0.95257   0.95257   0.58615   Biso      1.000     C          -0.147091           
         C10       1.0000    0.95665   0.95665   0.34055   Biso      1.000     C          -0.077642           
         C11       1.0000    0.95257   0.95257   0.50871   Biso      1.000     C          -0.14708800000000002          
         C12       1.0000    0.74615   0.34055   0.95665   Biso      1.000     C          -0.077641           
         C13       1.0000    0.58615   0.50871   0.95257   Biso      1.000     C          -0.147092           
         C14       1.0000    0.34055   0.74615   0.95665   Biso      1.000     C          -0.077641           
         C15       1.0000    0.50871   0.58615   0.95257   Biso      1.000     C          -0.147087           
         C16       1.0000    0.00000   0.34176   0.00000   Biso      1.000     C          -0.021654           
         C17       1.0000    0.00000   0.42254   0.00000   Biso      1.000     C          0.09603300000000001           
         C18       1.0000    0.00000   0.65824   0.00000   Biso      1.000     C          -0.021653           
         C19       1.0000    0.00000   0.57746   0.00000   Biso      1.000     C          0.09603300000000001           
         C20       1.0000    0.57746   0.00000   0.42254   Biso      1.000     C          0.096032  
         C21       1.0000    0.34176   0.00000   0.65824   Biso      1.000     C          -0.021654           
         C22       1.0000    0.42254   0.00000   0.57746   Biso      1.000     C          0.09603300000000001           
         C23       1.0000    0.00000   0.65824   0.34176   Biso      1.000     C          -0.021654           
         C24       1.0000    0.00000   0.57746   0.42254   Biso      1.000     C          0.096032  
         C25       1.0000    0.00000   0.34176   0.65824   Biso      1.000     C          -0.021639           
         C26       1.0000    0.65824   0.00000   0.00000   Biso      1.000     C          -0.021639           
         C27       1.0000    0.57746   0.00000   0.00000   Biso      1.000     C          0.096032  
         C28       1.0000    0.34176   0.00000   0.00000   Biso      1.000     C          -0.021639           
         C29       1.0000    0.42254   0.00000   0.00000   Biso      1.000     C          0.09603099999999999           
         C30       1.0000    0.00000   0.00000   0.65824   Biso      1.000     C          -0.021639           
         C31       1.0000    0.95257   0.58615   0.50871   Biso      1.000     C          -0.14708800000000002          
         C32       1.0000    0.95665   0.74615   0.34055   Biso      1.000     C          -0.077626           
         C33       1.0000    0.50871   0.95257   0.58615   Biso      1.000     C          -0.147091           
         C34       1.0000    0.34055   0.95665   0.74615   Biso      1.000     C          -0.07761799999999999          
         C35       1.0000    0.65945   0.04335   0.04335   Biso      1.000     C          -0.077627           
         C36       1.0000    0.49129   0.04743   0.04743   Biso      1.000     C          -0.147091           
         C37       1.0000    0.25385   0.04335   0.04335   Biso      1.000     C          -0.077627           
         C38       1.0000    0.41385   0.04743   0.04743   Biso      1.000     C          -0.147087           
         C39       1.0000    0.04335   0.25385   0.65945   Biso      1.000     C          -0.077632           
         C40       1.0000    0.04743   0.41385   0.49129   Biso      1.000     C          -0.147092           
         C41       1.0000    0.04335   0.65945   0.25385   Biso      1.000     C          -0.077622           
         C42       1.0000    0.04743   0.49129   0.41385   Biso      1.000     C          -0.147087           
         C43       1.0000    0.25385   0.04335   0.65945   Biso      1.000     C          -0.07762999999999999          
         C44       1.0000    0.41385   0.04743   0.49129   Biso      1.000     C          -0.147091           
         C45       1.0000    0.65945   0.04335   0.25385   Biso      1.000     C          -0.077622           
         C46       1.0000    0.49129   0.04743   0.41385   Biso      1.000     C          -0.147087           
         C47       1.0000    0.04335   0.25385   0.04335   Biso      1.000     C          -0.077625           
         C48       1.0000    0.04743   0.41385   0.04743   Biso      1.000     C          -0.147091           
         C49       1.0000    0.00000   0.00000   0.57746   Biso      1.000     C          0.09603099999999999           
         C50       1.0000    0.04335   0.65945   0.04335   Biso      1.000     C          -0.077625           
         C51       1.0000    0.04335   0.04335   0.25385   Biso      1.000     C          -0.077637           
         C52       1.0000    0.04743   0.04743   0.41385   Biso      1.000     C          -0.147092           
         C53       1.0000    0.04335   0.04335   0.65945   Biso      1.000     C          -0.077632           
         C54       1.0000    0.04743   0.04743   0.49129   Biso      1.000     C          -0.147087           
         C55       1.0000    0.65945   0.25385   0.04335   Biso      1.000     C          -0.077638           
         C56       1.0000    0.49129   0.41385   0.04743   Biso      1.000     C          -0.147091           
         C57       1.0000    0.25385   0.65945   0.04335   Biso      1.000     C          -0.077638           
         C58       1.0000    0.41385   0.49129   0.04743   Biso      1.000     C          -0.147087           
         C59       1.0000    0.95665   0.34055   0.95665   Biso      1.000     C          -0.077622           
         C60       1.0000    0.95257   0.50871   0.95257   Biso      1.000     C          -0.147091           
         C61       1.0000    0.95665   0.74615   0.95665   Biso      1.000     C          -0.07762100000000001          
         C62       1.0000    0.95257   0.58615   0.95257   Biso      1.000     C          -0.147087           
         C63       1.0000    0.74615   0.95665   0.34055   Biso      1.000     C          -0.077626           
         C64       1.0000    0.58615   0.95257   0.50871   Biso      1.000     C          -0.147087           
         C65       1.0000    0.04743   0.49129   0.04743   Biso      1.000     C          -0.147086           
         C66       1.0000    0.00000   0.00000   0.34176   Biso      1.000     C          -0.021625           
         C67       1.0000    0.00000   0.42254   0.57746   Biso      1.000     C          0.09603099999999999           
         C68       1.0000    0.65824   0.34176   0.00000   Biso      1.000     C          -0.021625           
         C69       1.0000    0.57746   0.42254   0.00000   Biso      1.000     C          0.09603099999999999           
         C70       1.0000    0.34176   0.65824   0.00000   Biso      1.000     C          -0.021625           
         C71       1.0000    0.42254   0.57746   0.00000   Biso      1.000     C          0.09602999999999999           
         C72       1.0000    0.00000   0.00000   0.42254   Biso      1.000     C          0.096029  
         H1        1.0000    0.39251   0.92105   0.92105   Biso      1.000     H          0.111507  
         H2        1.0000    0.64505   0.92015   0.92015   Biso      1.000     H          0.11255899999999999           
         H3        1.0000    0.76539   0.92105   0.92105   Biso      1.000     H          0.111507  
         H4        1.0000    0.92105   0.39251   0.76539   Biso      1.000     H          0.111507  
         H5        1.0000    0.92105   0.76539   0.39251   Biso      1.000     H          0.111507  
         H6        1.0000    0.51465   0.92015   0.92015   Biso      1.000     H          0.11255799999999999           
         H7        1.0000    0.51465   0.92015   0.64505   Biso      1.000     H          0.11255799999999999           
         H8        1.0000    0.39251   0.92105   0.76539   Biso      1.000     H          0.111506  
         H9        1.0000    0.64505   0.92015   0.51465   Biso      1.000     H          0.11255699999999999           
         H10       1.0000    0.76539   0.92105   0.39251   Biso      1.000     H          0.111507  
         H11       1.0000    0.92015   0.64505   0.51465   Biso      1.000     H          0.11255799999999999           
         H12       1.0000    0.92105   0.92105   0.76539   Biso      1.000     H          0.111507  
         H13       1.0000    0.92105   0.92105   0.39251   Biso      1.000     H          0.111508  
         H14       1.0000    0.92015   0.64505   0.92015   Biso      1.000     H          0.11255799999999999           
         H15       1.0000    0.92015   0.92015   0.51465   Biso      1.000     H          0.11255799999999999           
         H16       1.0000    0.76539   0.39251   0.92105   Biso      1.000     H          0.111507  
         H17       1.0000    0.64505   0.51465   0.92015   Biso      1.000     H          0.11255799999999999           
         H18       1.0000    0.39251   0.76539   0.92105   Biso      1.000     H          0.111507  
         H19       1.0000    0.51465   0.64505   0.92015   Biso      1.000     H          0.11255699999999999           
         H20       1.0000    0.12436   0.12436   0.87564   Biso      1.000     H          0.425533  
         H21       1.0000    0.87564   0.87564   0.12436   Biso      1.000     H          0.42553199999999997           
         H22       1.0000    0.12436   0.87564   0.12436   Biso      1.000     H          0.42553199999999997           
         H23       1.0000    0.87564   0.12436   0.87564   Biso      1.000     H          0.425533  
         H24       1.0000    0.12436   0.87564   0.87564   Biso      1.000     H          0.42553199999999997           
         H25       1.0000    0.87564   0.12436   0.12436   Biso      1.000     H          0.425533  
         H26       1.0000    0.92015   0.92015   0.64505   Biso      1.000     H          0.11255799999999999           
         H27       1.0000    0.92105   0.76539   0.92105   Biso      1.000     H          0.11150499999999999           
         H28       1.0000    0.92015   0.51465   0.64505   Biso      1.000     H          0.11255799999999999           
         H29       1.0000    0.92105   0.39251   0.92105   Biso      1.000     H          0.111506  
         H30       1.0000    0.60749   0.07895   0.07895   Biso      1.000     H          0.111506  
         H31       1.0000    0.48535   0.07985   0.07985   Biso      1.000     H          0.11255799999999999           
         H32       1.0000    0.92015   0.51465   0.92015   Biso      1.000     H          0.11255799999999999           
         H33       1.0000    0.35495   0.07985   0.07985   Biso      1.000     H          0.11255799999999999           
         H34       1.0000    0.07895   0.23461   0.60749   Biso      1.000     H          0.111507  
         H35       1.0000    0.07985   0.35495   0.48535   Biso      1.000     H          0.11255799999999999           
         H36       1.0000    0.07895   0.60749   0.23461   Biso      1.000     H          0.111506  
         H37       1.0000    0.07985   0.48535   0.35495   Biso      1.000     H          0.11255799999999999           
         H38       1.0000    0.23461   0.07895   0.60749   Biso      1.000     H          0.111507  
         H39       1.0000    0.35495   0.07985   0.48535   Biso      1.000     H          0.11255799999999999           
         H40       1.0000    0.60749   0.07895   0.23461   Biso      1.000     H          0.111506  
         H41       1.0000    0.48535   0.07985   0.35495   Biso      1.000     H          0.11255699999999999           
         H42       1.0000    0.23461   0.07895   0.07895   Biso      1.000     H          0.111506  
         H43       1.0000    0.07985   0.35495   0.07985   Biso      1.000     H          0.11255799999999999           
         H44       1.0000    0.07895   0.23461   0.07895   Biso      1.000     H          0.111506  
         H45       1.0000    0.35495   0.48535   0.07985   Biso      1.000     H          0.11255799999999999           
         H46       1.0000    0.48535   0.35495   0.07985   Biso      1.000     H          0.11255799999999999           
         H47       1.0000    0.60749   0.23461   0.07895   Biso      1.000     H          0.111507  
         H48       1.0000    0.07985   0.07985   0.48535   Biso      1.000     H          0.11255799999999999           
         H49       1.0000    0.23461   0.60749   0.07895   Biso      1.000     H          0.111507  
         H50       1.0000    0.07985   0.07985   0.35495   Biso      1.000     H          0.11255799999999999           
         H51       1.0000    0.07895   0.07895   0.23461   Biso      1.000     H          0.111507  
         H52       1.0000    0.07985   0.48535   0.07985   Biso      1.000     H          0.11255799999999999           
         H53       1.0000    0.07895   0.60749   0.07895   Biso      1.000     H          0.111506  
         H54       1.0000    0.07895   0.07895   0.60749   Biso      1.000     H          0.111507  
         N1        1.0000    0.19835   0.74807   0.02679   Biso      1.000     N          -0.174887           
         N2        1.0000    0.25193   0.97321   0.97321   Biso      1.000     N          -0.17488599999999999          
         N3        1.0000    0.74807   0.19835   0.02679   Biso      1.000     N          -0.17488599999999999          
         N4        1.0000    0.97321   0.25193   0.97321   Biso      1.000     N          -0.174887           
         N5        1.0000    0.97321   0.80165   0.97321   Biso      1.000     N          -0.174887           
         N6        1.0000    0.80165   0.97321   0.25193   Biso      1.000     N          -0.174878           
         N7        1.0000    0.25193   0.97321   0.80165   Biso      1.000     N          -0.17489000000000002          
         N8        1.0000    0.97321   0.80165   0.25193   Biso      1.000     N          -0.174877           
         N9        1.0000    0.97321   0.25193   0.80165   Biso      1.000     N          -0.174887           
         N10       1.0000    0.80165   0.97321   0.97321   Biso      1.000     N          -0.17488599999999999          
         N11       1.0000    0.97321   0.97321   0.80165   Biso      1.000     N          -0.174887           
         N12       1.0000    0.02679   0.19835   0.74807   Biso      1.000     N          -0.17485  
         N13       1.0000    0.80165   0.25193   0.97321   Biso      1.000     N          -0.17485799999999999          
         N14       1.0000    0.25193   0.80165   0.97321   Biso      1.000     N          -0.17485799999999999          
         N15       1.0000    0.74807   0.02679   0.02679   Biso      1.000     N          -0.17486  
         N16       1.0000    0.19835   0.02679   0.02679   Biso      1.000     N          -0.17486  
         N17       1.0000    0.02679   0.74807   0.19835   Biso      1.000     N          -0.174861           
         N18       1.0000    0.19835   0.02679   0.74807   Biso      1.000     N          -0.17485  
         N19       1.0000    0.74807   0.02679   0.19835   Biso      1.000     N          -0.174862           
         N20       1.0000    0.02679   0.19835   0.02679   Biso      1.000     N          -0.17486  
         N21       1.0000    0.02679   0.02679   0.74807   Biso      1.000     N          -0.17485  
         N22       1.0000    0.02679   0.74807   0.02679   Biso      1.000     N          -0.17486  
         N23       1.0000    0.97321   0.97321   0.25193   Biso      1.000     N          -0.174876           
         N24       1.0000    0.02679   0.02679   0.19835   Biso      1.000     N          -0.17486  
         Ni1       1.0000    0.82873   0.05709   0.05709   Biso      1.000     Ni          0.6950350000000001  
         Ni2       1.0000    0.94291   0.94291   0.94291   Biso      1.000     Ni          0.695038  
         Ni3       1.0000    0.94291   0.94291   0.17127   Biso      1.000     Ni          0.695032  
         Ni4       1.0000    0.17127   0.94291   0.94291   Biso      1.000     Ni          0.695041  
         Ni5       1.0000    0.94291   0.17127   0.94291   Biso      1.000     Ni          0.6950350000000001  
         Ni6       1.0000    0.05709   0.05709   0.05709   Biso      1.000     Ni          0.695032  
         Ni7       1.0000    0.05709   0.05709   0.82873   Biso      1.000     Ni          0.695025  
         Ni8       1.0000    0.05709   0.82873   0.05709   Biso      1.000     Ni          0.6950350000000001  
         O1        1.0000    0.91307   0.08693   0.08693   Biso      1.000     O          -0.79892  
         O2        1.0000    0.08693   0.91307   0.91307   Biso      1.000     O          -0.798921           
         O3        1.0000    0.91307   0.08693   0.91307   Biso      1.000     O          -0.79892  
         O4        1.0000    0.08693   0.91307   0.08693   Biso      1.000     O          -0.798921           
         O5        1.0000    0.91307   0.91307   0.08693   Biso      1.000     O          -0.798921           
         O6        1.0000    0.08693   0.08693   0.91307   Biso      1.000     O          -0.79892 