
##########################################################################
#               Crystallographic Information Format file
#               Produced by PyCifRW module
#
#  This is a CIF file.  CIF has been adopted by the International
#  Union of Crystallography as the standard for data archiving and
#  transmission.
#
#  For information on this file format, follow the CIF links at
#  http://www.iucr.org
##########################################################################

data_image0

_cell_length_a                          19.848
_cell_length_b                          19.848
_cell_length_c                          27.853
_cell_angle_alpha                       90
_cell_angle_beta                        90
_cell_angle_gamma                       120
_symmetry_space_group_name_H-M          'P 1'
_symmetry_int_tables_number             1
loop_
  _symmetry_equiv_pos_as_xyz
         'x, y, z' 
loop_
  _atom_site_label
  _atom_site_occupancy
  _atom_site_fract_x
  _atom_site_fract_y
  _atom_site_fract_z
  _atom_site_thermal_displace_type
  _atom_site_B_iso_or_equiv
  _atom_site_type_symbol
  _atom_site_charge
         C1        1.0000    0.34410   0.18470   0.58790   Biso      1.000     C          -0.151477           
         C2        1.0000    0.65590   0.84060   0.08790   Biso      1.000     C          -0.151476           
         C3        1.0000    0.66600   0.90920   0.07090   Biso      1.000     C          0.083597  
         C4        1.0000    0.62080   0.93770   0.08920   Biso      1.000     C          -0.150808           
         C5        1.0000    0.56600   0.89670   0.12440   Biso      1.000     C          -0.099456           
         C6        1.0000    0.72730   0.95570   0.03420   Biso      1.000     C          0.096749  
         C7        1.0000    0.79650   0.95540   0.03310   Biso      1.000     C          -0.212222           
         C8        1.0000    0.21430   0.71150   0.18050   Biso      1.000     C          0.611938  
         C9        1.0000    0.17080   0.72740   0.14150   Biso      1.000     C          -0.017741           
         C10       1.0000    0.19900   0.80040   0.12260   Biso      1.000     C          -0.094459           
         C11       1.0000    0.15940   0.81530   0.08790   Biso      1.000     C          -0.151471           
         C12       1.0000    0.60140   0.80100   0.12260   Biso      1.000     C          -0.09446  
         C13       1.0000    0.09080   0.75680   0.07090   Biso      1.000     C          0.083597  
         C14       1.0000    0.10330   0.66930   0.12440   Biso      1.000     C          -0.099436           
         C15       1.0000    0.04430   0.77160   0.03420   Biso      1.000     C          0.096749  
         C16       1.0000    0.04460   0.84110   0.03310   Biso      1.000     C          -0.212223           
         C17       1.0000    0.28850   0.50280   0.18050   Biso      1.000     C          0.611942  
         C18       1.0000    0.27260   0.44340   0.14150   Biso      1.000     C          -0.01774  
         C19       1.0000    0.19960   0.39860   0.12260   Biso      1.000     C          -0.094461           
         C20       1.0000    0.18470   0.34410   0.08790   Biso      1.000     C          -0.15147  
         C21       1.0000    0.24320   0.33400   0.07090   Biso      1.000     C          0.083597  
         C22       1.0000    0.31690   0.37920   0.08920   Biso      1.000     C          -0.150811           
         C23       1.0000    0.33070   0.43400   0.12440   Biso      1.000     C          -0.099434           
         C24       1.0000    0.06230   0.68310   0.08920   Biso      1.000     C          -0.15081  
         C25       1.0000    0.22840   0.27270   0.03420   Biso      1.000     C          0.096748  
         C26       1.0000    0.55660   0.82920   0.14150   Biso      1.000     C          -0.01772  
         C27       1.0000    0.95540   0.79650   0.53310   Biso      1.000     C          -0.212223           
         C28       1.0000    0.80040   0.19900   0.62260   Biso      1.000     C          -0.094467           
         C29       1.0000    0.81530   0.15940   0.58790   Biso      1.000     C          -0.15147  
         C30       1.0000    0.68310   0.06230   0.58920   Biso      1.000     C          -0.150811           
         C31       1.0000    0.66930   0.10330   0.62440   Biso      1.000     C          -0.099455           
         C32       1.0000    0.77160   0.04430   0.53420   Biso      1.000     C          0.096748  
         C33       1.0000    0.84110   0.04460   0.53310   Biso      1.000     C          -0.212222           
         C34       1.0000    0.50280   0.28850   0.68050   Biso      1.000     C          0.611939  
         C35       1.0000    0.44340   0.27260   0.64150   Biso      1.000     C          -0.017742           
         C36       1.0000    0.39860   0.19960   0.62260   Biso      1.000     C          -0.094453           
         C37       1.0000    0.33400   0.24320   0.57090   Biso      1.000     C          0.083598  
         C38       1.0000    0.49720   0.78570   0.18050   Biso      1.000     C          0.611936  
         C39       1.0000    0.37920   0.31690   0.58920   Biso      1.000     C          -0.150811           
         C40       1.0000    0.27270   0.22840   0.53420   Biso      1.000     C          0.096749  
         C41       1.0000    0.20350   0.15890   0.53310   Biso      1.000     C          -0.212224           
         C42       1.0000    0.78570   0.49720   0.68050   Biso      1.000     C          0.611941  
         C43       1.0000    0.82920   0.55660   0.64150   Biso      1.000     C          -0.01774  
         C44       1.0000    0.80100   0.60140   0.62260   Biso      1.000     C          -0.094461           
         C45       1.0000    0.84060   0.65590   0.58790   Biso      1.000     C          -0.15147  
         C46       1.0000    0.90920   0.66600   0.57090   Biso      1.000     C          0.083597  
         C47       1.0000    0.93770   0.62080   0.58920   Biso      1.000     C          -0.150811           
         C48       1.0000    0.89670   0.56600   0.62440   Biso      1.000     C          -0.099434           
         C49       1.0000    0.95570   0.72730   0.53420   Biso      1.000     C          0.096749  
         C50       1.0000    0.43400   0.33070   0.62440   Biso      1.000     C          -0.099435           
         C51       1.0000    0.15890   0.20350   0.03310   Biso      1.000     C          -0.212223           
         C52       1.0000    0.49720   0.78570   0.31950   Biso      1.000     C          0.611938  
         C53       1.0000    0.55660   0.82920   0.35850   Biso      1.000     C          -0.017743           
         C54       1.0000    0.93010   0.00000   0.00000   Biso      1.000     C          0.100948  
         C55       1.0000    0.28480   0.28480   0.00000   Biso      1.000     C          -0.20979  
         C56       1.0000    0.14550   0.14550   0.00000   Biso      1.000     C          0.095581  
         C57       1.0000    0.06990   0.06990   0.00000   Biso      1.000     C          0.100947  
         C58       1.0000    0.00000   0.71520   0.00000   Biso      1.000     C          -0.20979  
         C59       1.0000    0.00000   0.85450   0.00000   Biso      1.000     C          0.09558   
         C60       1.0000    0.00000   0.93010   0.00000   Biso      1.000     C          0.100948  
         C61       1.0000    0.71520   0.00000   0.50000   Biso      1.000     C          -0.20979  
         C62       1.0000    0.85450   0.00000   0.50000   Biso      1.000     C          0.09558   
         C63       1.0000    0.93010   0.00000   0.50000   Biso      1.000     C          0.100948  
         C64       1.0000    0.85450   0.00000   0.00000   Biso      1.000     C          0.09558   
         C65       1.0000    0.28480   0.28480   0.50000   Biso      1.000     C          -0.20979  
         C66       1.0000    0.06990   0.06990   0.50000   Biso      1.000     C          0.100948  
         C67       1.0000    0.00000   0.71520   0.50000   Biso      1.000     C          -0.20979  
         C68       1.0000    0.00000   0.85450   0.50000   Biso      1.000     C          0.09558   
         C69       1.0000    0.00000   0.93010   0.50000   Biso      1.000     C          0.100948  
         C70       1.0000    0.00000   0.06990   0.00000   Biso      1.000     C          -0.214256           
         C71       1.0000    0.06990   0.00000   0.00000   Biso      1.000     C          -0.214256           
         C72       1.0000    0.93010   0.93010   0.00000   Biso      1.000     C          -0.214256           
         C73       1.0000    0.00000   0.06990   0.50000   Biso      1.000     C          -0.214256           
         C74       1.0000    0.06990   0.00000   0.50000   Biso      1.000     C          -0.214256           
         C75       1.0000    0.93010   0.93010   0.50000   Biso      1.000     C          -0.214256           
         C76       1.0000    0.14550   0.14550   0.50000   Biso      1.000     C          0.09558   
         C77       1.0000    0.71520   0.00000   0.00000   Biso      1.000     C          -0.20979  
         C78       1.0000    0.15890   0.20350   0.46690   Biso      1.000     C          -0.212223           
         C79       1.0000    0.22840   0.27270   0.46580   Biso      1.000     C          0.096748  
         C80       1.0000    0.60140   0.80100   0.37740   Biso      1.000     C          -0.094461           
         C81       1.0000    0.65590   0.84060   0.41210   Biso      1.000     C          -0.15147  
         C82       1.0000    0.66600   0.90920   0.42910   Biso      1.000     C          0.083597  
         C83       1.0000    0.62080   0.93770   0.41080   Biso      1.000     C          -0.150811           
         C84       1.0000    0.56600   0.89670   0.37560   Biso      1.000     C          -0.099434           
         C85       1.0000    0.72730   0.95570   0.46580   Biso      1.000     C          0.096749  
         C86       1.0000    0.79650   0.95540   0.46690   Biso      1.000     C          -0.212222           
         C87       1.0000    0.21430   0.71150   0.31950   Biso      1.000     C          0.611939  
         C88       1.0000    0.17080   0.72740   0.35850   Biso      1.000     C          -0.017742           
         C89       1.0000    0.19900   0.80040   0.37740   Biso      1.000     C          -0.094459           
         C90       1.0000    0.15940   0.81530   0.41210   Biso      1.000     C          -0.151471           
         C91       1.0000    0.09080   0.75680   0.42910   Biso      1.000     C          0.083597  
         C92       1.0000    0.06230   0.68310   0.41080   Biso      1.000     C          -0.150812           
         C93       1.0000    0.10330   0.66930   0.37560   Biso      1.000     C          -0.099434           
         C94       1.0000    0.04430   0.77160   0.46580   Biso      1.000     C          0.096749  
         C95       1.0000    0.04460   0.84110   0.46690   Biso      1.000     C          -0.212223           
         C96       1.0000    0.28850   0.50280   0.31950   Biso      1.000     C          0.611942  
         C97       1.0000    0.27260   0.44340   0.35850   Biso      1.000     C          -0.017741           
         C98       1.0000    0.19960   0.39860   0.37740   Biso      1.000     C          -0.094461           
         C99       1.0000    0.18470   0.34410   0.41210   Biso      1.000     C          -0.15147  
         C100      1.0000    0.24320   0.33400   0.42910   Biso      1.000     C          0.083597  
         C101      1.0000    0.31690   0.37920   0.41080   Biso      1.000     C          -0.150812           
         C102      1.0000    0.33070   0.43400   0.37560   Biso      1.000     C          -0.099434           
         C103      1.0000    0.72740   0.17080   0.64150   Biso      1.000     C          -0.017719           
         C104      1.0000    0.71150   0.21430   0.68050   Biso      1.000     C          0.611936  
         C105      1.0000    0.75680   0.09080   0.57090   Biso      1.000     C          0.0836    
         C106      1.0000    0.95570   0.72730   0.96580   Biso      1.000     C          0.096749  
         C107      1.0000    0.95540   0.79650   0.96690   Biso      1.000     C          -0.212223           
         C108      1.0000    0.71150   0.21430   0.81950   Biso      1.000     C          0.611938  
         C109      1.0000    0.72740   0.17080   0.85850   Biso      1.000     C          -0.017743           
         C110      1.0000    0.80040   0.19900   0.87740   Biso      1.000     C          -0.09446  
         C111      1.0000    0.81530   0.15940   0.91210   Biso      1.000     C          -0.151471           
         C112      1.0000    0.75680   0.09080   0.92910   Biso      1.000     C          0.083597  
         C113      1.0000    0.68310   0.06230   0.91080   Biso      1.000     C          -0.150812           
         C114      1.0000    0.77160   0.04430   0.96580   Biso      1.000     C          0.096749  
         C115      1.0000    0.84110   0.04460   0.96690   Biso      1.000     C          -0.212222           
         C116      1.0000    0.50280   0.28850   0.81950   Biso      1.000     C          0.611939  
         C117      1.0000    0.44340   0.27260   0.85850   Biso      1.000     C          -0.017741           
         C118      1.0000    0.39860   0.19960   0.87740   Biso      1.000     C          -0.09446  
         C119      1.0000    0.34410   0.18470   0.91210   Biso      1.000     C          -0.151471           
         C120      1.0000    0.66930   0.10330   0.87560   Biso      1.000     C          -0.099434           
         C121      1.0000    0.37920   0.31690   0.91080   Biso      1.000     C          -0.150814           
         C122      1.0000    0.89670   0.56600   0.87560   Biso      1.000     C          -0.099457           
         C123      1.0000    0.33400   0.24320   0.92910   Biso      1.000     C          0.0836    
         C124      1.0000    0.93770   0.62080   0.91080   Biso      1.000     C          -0.150808           
         C125      1.0000    0.90920   0.66600   0.92910   Biso      1.000     C          0.083589  
         C126      1.0000    0.80100   0.60140   0.87740   Biso      1.000     C          -0.09447  
         C127      1.0000    0.82920   0.55660   0.85850   Biso      1.000     C          -0.017716           
         C128      1.0000    0.84060   0.65590   0.91210   Biso      1.000     C          -0.151457           
         C129      1.0000    0.78570   0.49720   0.81950   Biso      1.000     C          0.611939  
         C130      1.0000    0.20350   0.15890   0.96690   Biso      1.000     C          -0.212224           
         C131      1.0000    0.27270   0.22840   0.96580   Biso      1.000     C          0.096749  
         C132      1.0000    0.43400   0.33070   0.87560   Biso      1.000     C          -0.099434           
         H1        1.0000    0.75370   0.59450   0.63360   Biso      1.000     H          0.113713  
         H2        1.0000    0.37300   0.35760   0.57790   Biso      1.000     H          0.115745  
         H3        1.0000    0.46470   0.38080   0.63630   Biso      1.000     H          0.116269  
         H4        1.0000    0.40550   0.15920   0.63360   Biso      1.000     H          0.113712  
         H5        1.0000    0.19530   0.12010   0.55500   Biso      1.000     H          0.121481  
         H6        1.0000    0.31390   0.13450   0.57600   Biso      1.000     H          0.114629  
         H7        1.0000    0.82060   0.68610   0.57600   Biso      1.000     H          0.114629  
         H8        1.0000    0.68610   0.82060   0.07600   Biso      1.000     H          0.114629  
         H9        1.0000    0.91610   0.53530   0.63630   Biso      1.000     H          0.116268  
         H10       1.0000    0.92480   0.80470   0.55500   Biso      1.000     H          0.121481  
         H11       1.0000    0.59450   0.75370   0.13360   Biso      1.000     H          0.113713  
         H12       1.0000    0.53530   0.91610   0.13630   Biso      1.000     H          0.11627   
         H13       1.0000    0.87990   0.07520   0.55500   Biso      1.000     H          0.121481  
         H14       1.0000    0.62700   0.98460   0.07790   Biso      1.000     H          0.115745  
         H15       1.0000    0.98460   0.62700   0.57790   Biso      1.000     H          0.115745  
         H16       1.0000    0.61920   0.08390   0.63630   Biso      1.000     H          0.11627   
         H17       1.0000    0.40550   0.15920   0.86640   Biso      1.000     H          0.113713  
         H18       1.0000    0.86550   0.17940   0.57600   Biso      1.000     H          0.114629  
         H19       1.0000    0.84080   0.24630   0.86640   Biso      1.000     H          0.113713  
         H20       1.0000    0.86550   0.17940   0.92400   Biso      1.000     H          0.114629  
         H21       1.0000    0.64240   0.01540   0.92210   Biso      1.000     H          0.115745  
         H22       1.0000    0.61920   0.08390   0.86370   Biso      1.000     H          0.116268  
         H23       1.0000    0.87990   0.07520   0.94500   Biso      1.000     H          0.121481  
         H24       1.0000    0.80470   0.92480   0.05500   Biso      1.000     H          0.121481  
         H25       1.0000    0.31390   0.13450   0.92400   Biso      1.000     H          0.114629  
         H26       1.0000    0.64240   0.01540   0.57790   Biso      1.000     H          0.115745  
         H27       1.0000    0.37300   0.35760   0.92210   Biso      1.000     H          0.115745  
         H28       1.0000    0.19530   0.12010   0.94500   Biso      1.000     H          0.121481  
         H29       1.0000    0.75370   0.59450   0.86640   Biso      1.000     H          0.113714  
         H30       1.0000    0.82060   0.68610   0.92400   Biso      1.000     H          0.114628  
         H31       1.0000    0.98460   0.62700   0.92210   Biso      1.000     H          0.115745  
         H32       1.0000    0.91610   0.53530   0.86370   Biso      1.000     H          0.11627   
         H33       1.0000    0.92480   0.80470   0.94500   Biso      1.000     H          0.121481  
         H34       1.0000    0.84080   0.24630   0.63360   Biso      1.000     H          0.113714  
         H35       1.0000    0.46470   0.38080   0.86370   Biso      1.000     H          0.116269  
         H36       1.0000    0.24630   0.84080   0.13360   Biso      1.000     H          0.113713  
         H37       1.0000    0.38080   0.46470   0.13630   Biso      1.000     H          0.116269  
         H38       1.0000    0.01540   0.64240   0.07790   Biso      1.000     H          0.115745  
         H39       1.0000    0.38080   0.46470   0.36370   Biso      1.000     H          0.116268  
         H40       1.0000    0.12010   0.19530   0.44500   Biso      1.000     H          0.121481  
         H41       1.0000    0.66840   0.00000   0.00000   Biso      1.000     H          0.119292  
         H42       1.0000    0.33160   0.33160   0.00000   Biso      1.000     H          0.119292  
         H43       1.0000    0.17940   0.86550   0.07600   Biso      1.000     H          0.114629  
         H44       1.0000    0.66840   0.00000   0.50000   Biso      1.000     H          0.119292  
         H45       1.0000    0.35760   0.37300   0.42210   Biso      1.000     H          0.115745  
         H46       1.0000    0.33160   0.33160   0.50000   Biso      1.000     H          0.119292  
         H47       1.0000    0.00000   0.11680   0.00000   Biso      1.000     H          0.127155  
         H48       1.0000    0.11680   0.00000   0.00000   Biso      1.000     H          0.127155  
         H49       1.0000    0.88320   0.88320   0.00000   Biso      1.000     H          0.127155  
         H50       1.0000    0.00000   0.11680   0.50000   Biso      1.000     H          0.127155  
         H51       1.0000    0.11680   0.00000   0.50000   Biso      1.000     H          0.127155  
         H52       1.0000    0.88320   0.88320   0.50000   Biso      1.000     H          0.127155  
         H53       1.0000    0.00000   0.66840   0.50000   Biso      1.000     H          0.119292  
         H54       1.0000    0.13450   0.31390   0.42400   Biso      1.000     H          0.114629  
         H55       1.0000    0.00000   0.66840   0.00000   Biso      1.000     H          0.119292  
         H56       1.0000    0.07520   0.87990   0.44500   Biso      1.000     H          0.121481  
         H57       1.0000    0.15920   0.40550   0.36640   Biso      1.000     H          0.113713  
         H58       1.0000    0.07520   0.87990   0.05500   Biso      1.000     H          0.121481  
         H59       1.0000    0.15920   0.40550   0.13360   Biso      1.000     H          0.113713  
         H60       1.0000    0.13450   0.31390   0.07600   Biso      1.000     H          0.114629  
         H61       1.0000    0.35760   0.37300   0.07790   Biso      1.000     H          0.115745  
         H62       1.0000    0.12010   0.19530   0.05500   Biso      1.000     H          0.121481  
         H63       1.0000    0.59450   0.75370   0.36640   Biso      1.000     H          0.113713  
         H64       1.0000    0.08390   0.61920   0.13630   Biso      1.000     H          0.116269  
         H65       1.0000    0.62700   0.98460   0.42210   Biso      1.000     H          0.115745  
         H66       1.0000    0.53530   0.91610   0.36370   Biso      1.000     H          0.116268  
         H67       1.0000    0.80470   0.92480   0.44500   Biso      1.000     H          0.121481  
         H68       1.0000    0.24630   0.84080   0.36640   Biso      1.000     H          0.113713  
         H69       1.0000    0.17940   0.86550   0.42400   Biso      1.000     H          0.114629  
         H70       1.0000    0.01540   0.64240   0.42210   Biso      1.000     H          0.115745  
         H71       1.0000    0.08390   0.61920   0.36370   Biso      1.000     H          0.116269  
         H72       1.0000    0.68610   0.82060   0.42400   Biso      1.000     H          0.114629  
         O1        1.0000    0.72130   0.49020   0.69460   Biso      1.000     O          -0.59882  
         O2        1.0000    0.45740   0.81360   0.19510   Biso      1.000     O          -0.583141           
         O3        1.0000    0.49020   0.72130   0.19460   Biso      1.000     O          -0.598822           
         O4        1.0000    0.18640   0.64380   0.19510   Biso      1.000     O          -0.583143           
         O5        1.0000    0.27870   0.76890   0.19460   Biso      1.000     O          -0.598826           
         O6        1.0000    0.35620   0.54260   0.19510   Biso      1.000     O          -0.583145           
         O7        1.0000    0.27870   0.76890   0.30540   Biso      1.000     O          -0.598826           
         O8        1.0000    0.23110   0.50980   0.30540   Biso      1.000     O          -0.598821           
         O9        1.0000    0.35620   0.54260   0.30490   Biso      1.000     O          -0.583145           
         O10       1.0000    0.18640   0.64380   0.30490   Biso      1.000     O          -0.583144           
         O11       1.0000    0.49020   0.72130   0.30540   Biso      1.000     O          -0.598821           
         O12       1.0000    0.81360   0.45740   0.69510   Biso      1.000     O          -0.583145           
         O13       1.0000    0.45740   0.81360   0.30490   Biso      1.000     O          -0.583142           
         O14       1.0000    0.23110   0.50980   0.19460   Biso      1.000     O          -0.598821           
         O15       1.0000    0.50980   0.23110   0.69460   Biso      1.000     O          -0.598827           
         O16       1.0000    0.33333   0.66666   0.25000   Biso      1.000     O          -0.81631  
         O17       1.0000    0.76890   0.27870   0.69460   Biso      1.000     O          -0.598821           
         O18       1.0000    0.64380   0.18640   0.69510   Biso      1.000     O          -0.583141           
         O19       1.0000    0.72130   0.49020   0.80540   Biso      1.000     O          -0.59882  
         O20       1.0000    0.81360   0.45740   0.80490   Biso      1.000     O          -0.583144           
         O21       1.0000    0.50980   0.23110   0.80540   Biso      1.000     O          -0.598827           
         O22       1.0000    0.54260   0.35620   0.80490   Biso      1.000     O          -0.583144           
         O23       1.0000    0.76890   0.27870   0.80540   Biso      1.000     O          -0.598822           
         O24       1.0000    0.64380   0.18640   0.80490   Biso      1.000     O          -0.583142           
         O25       1.0000    0.66667   0.33334   0.75000   Biso      1.000     O          -0.81631  
         O26       1.0000    0.54260   0.35620   0.69510   Biso      1.000     O          -0.583144           
         Yb1       1.0000    0.41967   0.63427   0.25000   Biso      1.000     Yb          1.321156  
         Yb2       1.0000    0.21460   0.58033   0.25000   Biso      1.000     Yb          1.321205  
         Yb3       1.0000    0.36573   0.78540   0.25000   Biso      1.000     Yb          1.321072  
         Yb4       1.0000    0.78540   0.36573   0.75000   Biso      1.000     Yb          1.321156  
         Yb5       1.0000    0.63427   0.41967   0.75000   Biso      1.000     Yb          1.321207  
         Yb6       1.0000    0.58033   0.21460   0.75000   Biso      1.000     Yb          1.321073 