
##########################################################################
#               Crystallographic Information Format file
#               Produced by PyCifRW module
#
#  This is a CIF file.  CIF has been adopted by the International
#  Union of Crystallography as the standard for data archiving and
#  transmission.
#
#  For information on this file format, follow the CIF links at
#  http://www.iucr.org
##########################################################################

data_image0

_cell_length_a                          8.4671
_cell_length_b                          8.4671
_cell_length_c                          14.4437
_cell_angle_alpha                       90
_cell_angle_beta                        90
_cell_angle_gamma                       90
_symmetry_space_group_name_H-M          'P 1'
_symmetry_int_tables_number             1
loop_
  _symmetry_equiv_pos_as_xyz
         'x, y, z' 
loop_
  _atom_site_label
  _atom_site_occupancy
  _atom_site_fract_x
  _atom_site_fract_y
  _atom_site_fract_z
  _atom_site_thermal_displace_type
  _atom_site_B_iso_or_equiv
  _atom_site_type_symbol
  _atom_site_charge
         C1        1.0000    0.00000   0.14910   0.31110   Biso      1.000     C          0.088581  
         C2        1.0000    0.28770   0.00000   0.87830   Biso      1.000     C          0.586929  
         C3        1.0000    0.14910   0.00000   0.81110   Biso      1.000     C          0.08858200000000001           
         C4        1.0000    0.00000   0.71230   0.37830   Biso      1.000     C          0.586932  
         C5        1.0000    0.00000   0.85090   0.31110   Biso      1.000     C          0.088581  
         C6        1.0000    0.00000   0.28770   0.37830   Biso      1.000     C          0.586932  
         C7        1.0000    0.28770   0.00000   0.12170   Biso      1.000     C          0.586929  
         C8        1.0000    0.14910   0.00000   0.18890   Biso      1.000     C          0.08858200000000001           
         C9        1.0000    0.71230   0.00000   0.12170   Biso      1.000     C          0.586929  
         C10       1.0000    0.85090   0.00000   0.18890   Biso      1.000     C          0.08858200000000001           
         C11       1.0000    0.00000   0.71230   0.62170   Biso      1.000     C          0.586932  
         C12       1.0000    0.00000   0.85090   0.68890   Biso      1.000     C          0.088581  
         C13       1.0000    0.00000   0.28770   0.62170   Biso      1.000     C          0.586932  
         C14       1.0000    0.00000   0.14910   0.68890   Biso      1.000     C          0.088581  
         C15       1.0000    0.85140   0.85140   0.75000   Biso      1.000     C          -0.290118           
         C16       1.0000    0.14860   0.14860   0.75000   Biso      1.000     C          -0.290117           
         C17       1.0000    0.14860   0.85140   0.25000   Biso      1.000     C          -0.290117           
         C18       1.0000    0.85140   0.14860   0.25000   Biso      1.000     C          -0.290117           
         C19       1.0000    0.14860   0.14860   0.25000   Biso      1.000     C          -0.290117           
         C20       1.0000    0.85140   0.85140   0.25000   Biso      1.000     C          -0.290118           
         C21       1.0000    0.85140   0.14860   0.75000   Biso      1.000     C          -0.290117           
         C22       1.0000    0.14860   0.85140   0.75000   Biso      1.000     C          -0.290117           
         C23       1.0000    0.00000   0.00000   0.87300   Biso      1.000     C          -0.28357899999999997          
         C24       1.0000    0.00000   0.00000   0.37300   Biso      1.000     C          -0.28357899999999997          
         C25       1.0000    0.00000   0.00000   0.12700   Biso      1.000     C          -0.28358  
         C26       1.0000    0.00000   0.00000   0.62700   Biso      1.000     C          -0.28357899999999997          
         C27       1.0000    0.85090   0.00000   0.81110   Biso      1.000     C          0.08858200000000001           
         C28       1.0000    0.71230   0.00000   0.87830   Biso      1.000     C          0.586928  
         Cu1       1.0000    0.50000   0.85300   0.00000   Biso      1.000     Cu          0.81084   
         Cu2       1.0000    0.50000   0.14700   0.00000   Biso      1.000     Cu          0.810836  
         Cu3       1.0000    0.14700   0.50000   0.50000   Biso      1.000     Cu          0.810865  
         Cu4       1.0000    0.85300   0.50000   0.50000   Biso      1.000     Cu          0.810872  
         H1        1.0000    0.09470   0.00000   0.58680   Biso      1.000     H          0.125122  
         H2        1.0000    0.75590   0.85000   0.71050   Biso      1.000     H          0.13297899999999999           
         H3        1.0000    0.24410   0.15000   0.71050   Biso      1.000     H          0.13297899999999999           
         H4        1.0000    0.90530   0.00000   0.58680   Biso      1.000     H          0.125122  
         H5        1.0000    0.85000   0.24410   0.21050   Biso      1.000     H          0.13297899999999999           
         H6        1.0000    0.24410   0.85000   0.28950   Biso      1.000     H          0.13297899999999999           
         H7        1.0000    0.75590   0.15000   0.28950   Biso      1.000     H          0.13297899999999999           
         H8        1.0000    0.85000   0.75590   0.78950   Biso      1.000     H          0.13297899999999999           
         H9        1.0000    0.15000   0.24410   0.78950   Biso      1.000     H          0.13297899999999999           
         H10       1.0000    0.24410   0.15000   0.28950   Biso      1.000     H          0.13297899999999999           
         H11       1.0000    0.75590   0.85000   0.28950   Biso      1.000     H          0.13297899999999999           
         H12       1.0000    0.15000   0.75590   0.21050   Biso      1.000     H          0.13297899999999999           
         H13       1.0000    0.15000   0.75590   0.78950   Biso      1.000     H          0.13297899999999999           
         H14       1.0000    0.85000   0.24410   0.78950   Biso      1.000     H          0.13297899999999999           
         H15       1.0000    0.00000   0.90530   0.08680   Biso      1.000     H          0.125124  
         H16       1.0000    0.00000   0.09470   0.08680   Biso      1.000     H          0.125124  
         H17       1.0000    0.90530   0.00000   0.41320   Biso      1.000     H          0.125122  
         H18       1.0000    0.00000   0.90530   0.91320   Biso      1.000     H          0.125124  
         H19       1.0000    0.09470   0.00000   0.41320   Biso      1.000     H          0.125122  
         H20       1.0000    0.00000   0.09470   0.91320   Biso      1.000     H          0.125124  
         H21       1.0000    0.85000   0.75590   0.21050   Biso      1.000     H          0.13297899999999999           
         H22       1.0000    0.15000   0.24410   0.21050   Biso      1.000     H          0.13297899999999999           
         H23       1.0000    0.24410   0.85000   0.71050   Biso      1.000     H          0.13297899999999999           
         H24       1.0000    0.75590   0.15000   0.71050   Biso      1.000     H          0.13297899999999999           
         O1        1.0000    0.33820   0.13170   0.09420   Biso      1.000     O          -0.5200520000000001           
         O2        1.0000    0.66180   0.13170   0.90580   Biso      1.000     O          -0.5200520000000001           
         O3        1.0000    0.13170   0.66180   0.59420   Biso      1.000     O          -0.5200600000000001           
         O4        1.0000    0.86830   0.33820   0.59420   Biso      1.000     O          -0.520061           
         O5        1.0000    0.66180   0.86830   0.09420   Biso      1.000     O          -0.5200520000000001           
         O6        1.0000    0.33820   0.86830   0.90580   Biso      1.000     O          -0.520053           
         O7        1.0000    0.13170   0.33820   0.59420   Biso      1.000     O          -0.5200600000000001           
         O8        1.0000    0.33820   0.13170   0.90580   Biso      1.000     O          -0.5200520000000001           
         O9        1.0000    0.66180   0.13170   0.09420   Biso      1.000     O          -0.5200520000000001           
         O10       1.0000    0.33820   0.86830   0.09420   Biso      1.000     O          -0.520053           
         O11       1.0000    0.86830   0.33820   0.40580   Biso      1.000     O          -0.520061           
         O12       1.0000    0.13170   0.66180   0.40580   Biso      1.000     O          -0.5200600000000001           
         O13       1.0000    0.66180   0.86830   0.90580   Biso      1.000     O          -0.5200520000000001           
         O14       1.0000    0.13170   0.33820   0.40580   Biso      1.000     O          -0.5200600000000001           
         O15       1.0000    0.86830   0.66180   0.59420   Biso      1.000     O          -0.520061           
         O16       1.0000    0.86830   0.66180   0.40580   Biso      1.000     O          -0.520061 