
##########################################################################
#               Crystallographic Information Format file
#               Produced by PyCifRW module
#
#  This is a CIF file.  CIF has been adopted by the International
#  Union of Crystallography as the standard for data archiving and
#  transmission.
#
#  For information on this file format, follow the CIF links at
#  http://www.iucr.org
##########################################################################

data_image0

_cell_length_a                          10.144
_cell_length_b                          15.5263
_cell_length_c                          18.028
_cell_angle_alpha                       103.422
_cell_angle_beta                        90
_cell_angle_gamma                       109.067
_symmetry_space_group_name_H-M          'P 1'
_symmetry_int_tables_number             1
loop_
  _symmetry_equiv_pos_as_xyz
         'x, y, z' 
loop_
  _atom_site_label
  _atom_site_occupancy
  _atom_site_fract_x
  _atom_site_fract_y
  _atom_site_fract_z
  _atom_site_thermal_displace_type
  _atom_site_B_iso_or_equiv
  _atom_site_type_symbol
  _atom_site_charge
         C1        1.0000    0.13771   0.53582   0.12850   Biso      1.000     C          0.520075  
         C2        1.0000    0.90282   0.28024   0.55925   Biso      1.000     C          -0.122557           
         C3        1.0000    0.45986   0.37512   0.08280   Biso      1.000     C          -0.046646           
         C4        1.0000    0.04304   0.86008   0.42010   Biso      1.000     C          0.682133  
         C5        1.0000    0.39563   0.43006   0.87504   Biso      1.000     C          0.255579  
         C6        1.0000    0.03443   0.43006   0.37504   Biso      1.000     C          0.25396599999999997           
         C7        1.0000    0.48757   0.41014   0.40966   Biso      1.000     C          -0.052585           
         C8        1.0000    0.49147   0.58374   0.24246   Biso      1.000     C          -0.041684           
         C9        1.0000    0.48521   0.47182   0.82581   Biso      1.000     C          -0.024745           
         C10       1.0000    0.09227   0.58374   0.74246   Biso      1.000     C          -0.04137  
         C11       1.0000    0.96862   0.17224   0.87080   Biso      1.000     C          0.604686  
         C12       1.0000    0.01339   0.52818   0.67419   Biso      1.000     C          -0.023824           
         C13       1.0000    0.33464   0.33388   0.85975   Biso      1.000     C          -0.187417           
         C14       1.0000    0.08474   0.62488   0.41720   Biso      1.000     C          -0.046176           
         C15       1.0000    0.35122   0.40304   0.51888   Biso      1.000     C          0.25182   
         C16       1.0000    0.60704   0.46208   0.70768   Biso      1.000     C          0.5230060000000001  
         C17       1.0000    0.73903   0.70446   0.82306   Biso      1.000     C          -0.181644           
         C18       1.0000    0.12298   0.68076   0.75975   Biso      1.000     C          -0.10908  
         C19       1.0000    0.26097   0.29554   0.17694   Biso      1.000     C          -0.181644           
         C20       1.0000    0.95696   0.13992   0.57990   Biso      1.000     C          0.682133  
         C21       1.0000    0.72898   0.68816   0.51507   Biso      1.000     C          -0.20975  
         C22       1.0000    0.45905   0.45250   0.48194   Biso      1.000     C          -0.023261           
         C23       1.0000    0.91526   0.37512   0.58280   Biso      1.000     C          -0.046176           
         C24       1.0000    0.81704   0.86008   0.92010   Biso      1.000     C          0.683064  
         C25       1.0000    0.44222   0.31924   0.74025   Biso      1.000     C          -0.10943  
         C26       1.0000    0.02658   0.73016   0.08847   Biso      1.000     C          0.0026100000000000003         
         C27       1.0000    0.00655   0.54750   0.01806   Biso      1.000     C          -0.023925           
         C28       1.0000    0.37742   0.28024   0.05925   Biso      1.000     C          -0.12408399999999999          
         C29       1.0000    0.54014   0.62488   0.91720   Biso      1.000     C          -0.046646           
         C30       1.0000    0.20362   0.17224   0.37080   Biso      1.000     C          0.603796  
         C31       1.0000    0.66536   0.66612   0.14025   Biso      1.000     C          -0.187417           
         C32       1.0000    0.87702   0.31924   0.24025   Biso      1.000     C          -0.109079           
         C33       1.0000    0.99924   0.33388   0.35975   Biso      1.000     C          -0.186678           
         C34       1.0000    0.09718   0.71976   0.44075   Biso      1.000     C          -0.122557           
         C35       1.0000    0.87684   0.17328   0.27800   Biso      1.000     C          0.6920430000000001  
         C36       1.0000    0.39811   0.53582   0.62850   Biso      1.000     C          0.520151  
         C37       1.0000    0.04082   0.31184   0.98493   Biso      1.000     C          -0.20904299999999998          
         C38       1.0000    0.54095   0.54750   0.51806   Biso      1.000     C          -0.023261           
         C39       1.0000    0.01028   0.57076   0.34787   Biso      1.000     C          -0.019992           
         C40       1.0000    0.96557   0.56994   0.62496   Biso      1.000     C          0.253967  
         C41       1.0000    0.51243   0.58986   0.59034   Biso      1.000     C          -0.052585           
         C42       1.0000    0.98661   0.47182   0.32581   Biso      1.000     C          -0.023823           
         C43       1.0000    0.60437   0.56994   0.12496   Biso      1.000     C          0.255579  
         C44       1.0000    0.62258   0.71976   0.94075   Biso      1.000     C          -0.12408499999999999          
         C45       1.0000    0.92257   0.41014   0.90966   Biso      1.000     C          -0.052282           
         C46       1.0000    0.99345   0.45250   0.98194   Biso      1.000     C          -0.023923           
         C47       1.0000    0.98972   0.42924   0.65213   Biso      1.000     C          -0.019992           
         C48       1.0000    0.95918   0.68816   0.01507   Biso      1.000     C          -0.20904299999999998          
         C49       1.0000    0.60189   0.46418   0.37150   Biso      1.000     C          0.520151  
         C50       1.0000    0.97342   0.26984   0.91153   Biso      1.000     C          0.0026089999999999998         
         C51       1.0000    0.08490   0.68080   0.12610   Biso      1.000     C          -0.11661700000000001          
         C52       1.0000    0.55778   0.68076   0.25975   Biso      1.000     C          -0.10943  
         C53       1.0000    0.56569   0.41918   0.03497   Biso      1.000     C          0.527459  
         C54       1.0000    0.14496   0.53792   0.79232   Biso      1.000     C          0.5229590000000001  
         C55       1.0000    0.91510   0.31920   0.87390   Biso      1.000     C          -0.11661500000000001          
         C56       1.0000    0.91998   0.27836   0.29186   Biso      1.000     C          -0.007437           
         C57       1.0000    0.07743   0.58986   0.09034   Biso      1.000     C          -0.05227999999999999          
         C58       1.0000    0.64878   0.59696   0.48112   Biso      1.000     C          0.251824  
         C59       1.0000    0.96294   0.24128   0.60642   Biso      1.000     C          -0.010712000000000001         
         C60       1.0000    0.85349   0.41918   0.53497   Biso      1.000     C          0.52758   
         C61       1.0000    0.70358   0.73016   0.58847   Biso      1.000     C          0.003814  
         C62       1.0000    0.96543   0.70446   0.32306   Biso      1.000     C          -0.181471           
         C63       1.0000    0.40410   0.31920   0.37390   Biso      1.000     C          -0.11876700000000001          
         C64       1.0000    0.18296   0.13992   0.07990   Biso      1.000     C          0.683064  
         C65       1.0000    0.86229   0.46418   0.87150   Biso      1.000     C          0.520075  
         C66       1.0000    0.29642   0.26984   0.41153   Biso      1.000     C          0.003814  
         C67       1.0000    0.94818   0.59696   0.98112   Biso      1.000     C          0.250668  
         C68       1.0000    0.85504   0.46208   0.20768   Biso      1.000     C          0.5229590000000001  
         C69       1.0000    0.14651   0.58082   0.46503   Biso      1.000     C          0.52758   
         C70       1.0000    0.79638   0.82776   0.62920   Biso      1.000     C          0.603796  
         C71       1.0000    0.43431   0.58082   0.96503   Biso      1.000     C          0.527459  
         C72       1.0000    0.95239   0.61098   0.30140   Biso      1.000     C          0.251525  
         C73       1.0000    0.29644   0.17328   0.77800   Biso      1.000     C          0.6910069999999999  
         C74       1.0000    0.65859   0.61098   0.80140   Biso      1.000     C          0.25248400000000004           
         C75       1.0000    0.03138   0.82776   0.12920   Biso      1.000     C          0.604685  
         C76       1.0000    0.72166   0.75872   0.89358   Biso      1.000     C          -0.011445           
         C77       1.0000    0.05182   0.40304   0.01888   Biso      1.000     C          0.25066700000000003           
         C78       1.0000    0.70356   0.82672   0.22200   Biso      1.000     C          0.6910069999999999  
         C79       1.0000    0.50853   0.41626   0.75754   Biso      1.000     C          -0.041684           
         C80       1.0000    0.27834   0.24128   0.10642   Biso      1.000     C          -0.011445           
         C81       1.0000    0.51479   0.52818   0.17419   Biso      1.000     C          -0.024745           
         C82       1.0000    0.27102   0.31184   0.48493   Biso      1.000     C          -0.20974600000000002          
         C83       1.0000    0.90773   0.41626   0.25754   Biso      1.000     C          -0.04137  
         C84       1.0000    0.08002   0.72164   0.70814   Biso      1.000     C          -0.007437           
         C85       1.0000    0.64162   0.72164   0.20814   Biso      1.000     C          -0.006678           
         C86       1.0000    0.59590   0.68080   0.62610   Biso      1.000     C          -0.11876700000000001          
         C87       1.0000    0.35838   0.27836   0.79186   Biso      1.000     C          -0.006678           
         C88       1.0000    0.39296   0.53792   0.29232   Biso      1.000     C          0.5230060000000001  
         C89       1.0000    0.00076   0.66612   0.64025   Biso      1.000     C          -0.186678           
         C90       1.0000    0.04761   0.38902   0.69860   Biso      1.000     C          0.25151999999999997           
         C91       1.0000    0.34141   0.38902   0.19860   Biso      1.000     C          0.25248400000000004           
         C92       1.0000    0.03706   0.75872   0.39358   Biso      1.000     C          -0.010712000000000001         
         C93       1.0000    0.12316   0.82672   0.72200   Biso      1.000     C          0.6920430000000001  
         C94       1.0000    0.03457   0.29554   0.67694   Biso      1.000     C          -0.18146500000000002          
         C95       1.0000    0.43952   0.42924   0.15213   Biso      1.000     C          -0.019281           
         C96       1.0000    0.56048   0.57076   0.84787   Biso      1.000     C          -0.019281           
         Ce1       1.0000    0.86979   0.99326   0.11886   Biso      1.000     Ce          2.120843  
         Ce2       1.0000    0.12347   0.99326   0.61886   Biso      1.000     Ce          2.120765  
         Ce3       1.0000    0.13021   0.00674   0.88114   Biso      1.000     Ce          2.120843  
         Ce4       1.0000    0.87653   0.00674   0.38114   Biso      1.000     Ce          2.120765  
         H1        1.0000    0.57990   0.70880   0.67520   Biso      1.000     H          0.13093   
         H2        1.0000    0.02800   0.30620   0.39430   Biso      1.000     H          0.141731  
         H3        1.0000    0.20040   0.27840   0.51060   Biso      1.000     H          0.13835899999999998           
         H4        1.0000    0.12890   0.70880   0.17520   Biso      1.000     H          0.130727  
         H5        1.0000    0.97200   0.69380   0.60570   Biso      1.000     H          0.141731  
         H6        1.0000    0.07280   0.26880   0.70860   Biso      1.000     H          0.14688199999999998           
         H7        1.0000    0.07800   0.27840   0.01060   Biso      1.000     H          0.13781600000000002           
         H8        1.0000    0.85490   0.24360   0.51260   Biso      1.000     H          0.12708699999999998           
         H9        1.0000    0.80400   0.73120   0.79140   Biso      1.000     H          0.14721900000000002           
         H10       1.0000    0.72180   0.69380   0.10570   Biso      1.000     H          0.142271  
         H11       1.0000    0.38870   0.24360   0.01260   Biso      1.000     H          0.1285    
         H12       1.0000    0.98580   0.04620   0.76030   Biso      1.000     H          0.459135  
         H13       1.0000    0.27820   0.30620   0.89430   Biso      1.000     H          0.142271  
         H14       1.0000    0.17230   0.71800   0.80590   Biso      1.000     H          0.13075699999999998           
         H15       1.0000    0.42010   0.29120   0.32480   Biso      1.000     H          0.130929  
         H16       1.0000    0.06040   0.04620   0.26030   Biso      1.000     H          0.457917  
         H17       1.0000    0.45430   0.28200   0.69410   Biso      1.000     H          0.13073800000000002           
         H18       1.0000    0.19600   0.26880   0.20860   Biso      1.000     H          0.14721900000000002           
         H19       1.0000    0.54570   0.71800   0.30590   Biso      1.000     H          0.13073800000000002           
         H20       1.0000    0.01420   0.95380   0.23970   Biso      1.000     H          0.459135  
         H21       1.0000    0.92720   0.73120   0.29140   Biso      1.000     H          0.14688199999999998           
         H22       1.0000    0.79960   0.72160   0.48940   Biso      1.000     H          0.13835899999999998           
         H23       1.0000    0.82770   0.28200   0.19410   Biso      1.000     H          0.13075699999999998           
         H24       1.0000    0.93960   0.95380   0.73970   Biso      1.000     H          0.45791800000000005           
         H25       1.0000    0.14510   0.75640   0.48740   Biso      1.000     H          0.12708699999999998           
         H26       1.0000    0.61130   0.75640   0.98740   Biso      1.000     H          0.1285    
         H27       1.0000    0.87110   0.29120   0.82480   Biso      1.000     H          0.130726  
         H28       1.0000    0.92200   0.72160   0.98940   Biso      1.000     H          0.13781600000000002           
         O1        1.0000    0.12325   0.44470   0.09080   Biso      1.000     O          -0.23673899999999998          
         O2        1.0000    0.11241   0.48374   0.44288   Biso      1.000     O          -0.241694           
         O3        1.0000    0.32304   0.44284   0.26849   Biso      1.000     O          -0.232167           
         O4        1.0000    0.87675   0.55530   0.90920   Biso      1.000     O          -0.23673899999999998          
         O5        1.0000    0.28747   0.12454   0.71078   Biso      1.000     O          -0.712823           
         O6        1.0000    0.08997   0.90274   0.48735   Biso      1.000     O          -0.727961           
         O7        1.0000    0.60178   0.37996   0.97717   Biso      1.000     O          -0.43358800000000003          
         O8        1.0000    0.91003   0.09726   0.51265   Biso      1.000     O          -0.727961           
         O9        1.0000    0.99958   0.89496   0.37377   Biso      1.000     O          -0.646867           
         O10       1.0000    0.26022   0.14144   0.83543   Biso      1.000     O          -0.669186           
         O11       1.0000    0.05842   0.85104   0.20019   Biso      1.000     O          -0.552147           
         O12       1.0000    0.63153   0.42326   0.64556   Biso      1.000     O          -0.450747           
         O13       1.0000    0.00534   0.87928   0.09016   Biso      1.000     O          -0.699332           
         O14       1.0000    0.39822   0.62004   0.02283   Biso      1.000     O          -0.43358800000000003          
         O15       1.0000    0.19878   0.56476   0.19144   Biso      1.000     O          -0.45162399999999997          
         O16       1.0000    0.99466   0.12072   0.90984   Biso      1.000     O          -0.699332           
         O17       1.0000    0.77818   0.37996   0.47717   Biso      1.000     O          -0.43445100000000003          
         O18       1.0000    0.79173   0.42326   0.14556   Biso      1.000     O          -0.45176400000000005          
         O19       1.0000    0.10462   0.10504   0.12623   Biso      1.000     O          -0.6472060000000001           
         O20       1.0000    0.00042   0.10504   0.62623   Biso      1.000     O          -0.646867           
         O21       1.0000    0.71253   0.87546   0.28922   Biso      1.000     O          -0.712823           
         O22       1.0000    0.18723   0.09726   0.01265   Biso      1.000     O          -0.72851  
         O23       1.0000    0.32145   0.44470   0.59080   Biso      1.000     O          -0.23779899999999998          
         O24       1.0000    0.83707   0.12454   0.21078   Biso      1.000     O          -0.713064           
         O25       1.0000    0.22182   0.62004   0.52283   Biso      1.000     O          -0.43445100000000003          
         O26       1.0000    0.16293   0.87546   0.78922   Biso      1.000     O          -0.713064           
         O27       1.0000    0.63402   0.43524   0.30856   Biso      1.000     O          -0.451691           
         O28       1.0000    0.01302   0.00000   0.75000   Biso      1.000     O          -0.9906020000000001           
         O29       1.0000    0.11878   0.85856   0.66457   Biso      1.000     O          -0.669866           
         O30       1.0000    0.12606   0.12072   0.40984   Biso      1.000     O          -0.6988300000000001           
         O31       1.0000    0.36847   0.57674   0.35444   Biso      1.000     O          -0.450747           
         O32       1.0000    0.20827   0.57674   0.85444   Biso      1.000     O          -0.45176400000000005          
         O33       1.0000    0.81277   0.90274   0.98735   Biso      1.000     O          -0.72851  
         O34       1.0000    0.73978   0.85856   0.16457   Biso      1.000     O          -0.669186           
         O35       1.0000    0.88122   0.14144   0.33543   Biso      1.000     O          -0.669866           
         O36       1.0000    0.11980   0.44284   0.76849   Biso      1.000     O          -0.230754           
         O37       1.0000    0.87394   0.87928   0.59016   Biso      1.000     O          -0.6988300000000001           
         O38       1.0000    0.79262   0.85104   0.70019   Biso      1.000     O          -0.551092           
         O39       1.0000    0.89538   0.89496   0.87377   Biso      1.000     O          -0.6472060000000001           
         O40       1.0000    0.94158   0.14896   0.79981   Biso      1.000     O          -0.552147           
         O41       1.0000    0.20738   0.14896   0.29981   Biso      1.000     O          -0.551092           
         O42       1.0000    0.98698   0.00000   0.25000   Biso      1.000     O          -0.9906020000000001           
         O43       1.0000    0.67696   0.55716   0.73151   Biso      1.000     O          -0.232167           
         O44       1.0000    0.37133   0.48374   0.94288   Biso      1.000     O          -0.243024           
         O45       1.0000    0.62867   0.51626   0.05712   Biso      1.000     O          -0.243024           
         O46       1.0000    0.88020   0.55716   0.23151   Biso      1.000     O          -0.23075500000000002          
         O47       1.0000    0.88759   0.51626   0.55712   Biso      1.000     O          -0.241694           
         O48       1.0000    0.80122   0.43524   0.80856   Biso      1.000     O          -0.45162399999999997          
         O49       1.0000    0.67855   0.55530   0.40920   Biso      1.000     O          -0.23779899999999998          
         O50       1.0000    0.36598   0.56476   0.69144   Biso      1.000     O          -0.451691 