
##########################################################################
#               Crystallographic Information Format file
#               Produced by PyCifRW module
#
#  This is a CIF file.  CIF has been adopted by the International
#  Union of Crystallography as the standard for data archiving and
#  transmission.
#
#  For information on this file format, follow the CIF links at
#  http://www.iucr.org
##########################################################################

data_image0

_cell_length_a                          12.988
_cell_length_b                          13.722
_cell_length_c                          19.73
_cell_angle_alpha                       90
_cell_angle_beta                        90
_cell_angle_gamma                       90
_symmetry_space_group_name_H-M          'P 1'
_symmetry_int_tables_number             1
loop_
  _symmetry_equiv_pos_as_xyz
         'x, y, z' 
loop_
  _atom_site_label
  _atom_site_occupancy
  _atom_site_fract_x
  _atom_site_fract_y
  _atom_site_fract_z
  _atom_site_thermal_displace_type
  _atom_site_B_iso_or_equiv
  _atom_site_type_symbol
  _atom_site_charge
         C1        1.0000    0.89520   0.10580   0.17080   Biso      1.000     C          0.088675  
         C2        1.0000    0.91560   0.73070   0.25910   Biso      1.000     C          0.082758  
         C3        1.0000    0.65500   0.72720   0.77590   Biso      1.000     C          0.031149  
         C4        1.0000    0.29060   0.34420   0.02770   Biso      1.000     C          -0.124718           
         C5        1.0000    0.38990   0.82510   0.45690   Biso      1.000     C          -0.035166           
         C6        1.0000    0.90650   0.96140   0.77800   Biso      1.000     C          -0.165474           
         C7        1.0000    0.93370   0.00340   0.34700   Biso      1.000     C          0.593935  
         C8        1.0000    0.65500   0.77280   0.27590   Biso      1.000     C          0.031074  
         C9        1.0000    0.92490   0.16900   0.29490   Biso      1.000     C          -0.162356           
         C10       1.0000    0.90650   0.53860   0.27800   Biso      1.000     C          -0.165383           
         C11       1.0000    0.92490   0.83100   0.70510   Biso      1.000     C          -0.162336           
         C12       1.0000    0.64490   0.70430   0.70860   Biso      1.000     C          -0.158994           
         C13       1.0000    0.20980   0.20190   0.56180   Biso      1.000     C          -0.006136           
         C14       1.0000    0.63740   0.17790   0.20390   Biso      1.000     C          -0.150146           
         C15       1.0000    0.09920   0.67320   0.95080   Biso      1.000     C          0.602332  
         C16       1.0000    0.41360   0.23830   0.59690   Biso      1.000     C          -0.127913           
         C17       1.0000    0.20980   0.79810   0.43820   Biso      1.000     C          -0.006139           
         C18       1.0000    0.29060   0.84420   0.47230   Biso      1.000     C          -0.124537           
         C19       1.0000    0.92170   0.92950   0.71290   Biso      1.000     C          0.023438  
         C20       1.0000    0.74230   0.31580   0.50990   Biso      1.000     C          0.584844  
         C21       1.0000    0.64490   0.29570   0.29140   Biso      1.000     C          -0.158998           
         C22       1.0000    0.60540   0.61110   0.24900   Biso      1.000     C          0.084228  
         C23       1.0000    0.63740   0.82210   0.79610   Biso      1.000     C          -0.150155           
         C24       1.0000    0.09920   0.17320   0.54920   Biso      1.000     C          0.602829  
         C25       1.0000    0.23310   0.76730   0.88670   Biso      1.000     C          -0.103441           
         C26       1.0000    0.74230   0.68420   0.49010   Biso      1.000     C          0.584839  
         C27       1.0000    0.60540   0.38890   0.75100   Biso      1.000     C          0.08422   
         C28       1.0000    0.38990   0.67490   0.95690   Biso      1.000     C          -0.03483  
         C29       1.0000    0.68800   0.08790   0.00290   Biso      1.000     C          -0.028104           
         C30       1.0000    0.63740   0.32210   0.70390   Biso      1.000     C          -0.150162           
         C31       1.0000    0.90650   0.46140   0.72200   Biso      1.000     C          -0.16538  
         C32       1.0000    0.20980   0.70190   0.93820   Biso      1.000     C          -0.006017           
         C33       1.0000    0.93370   0.99660   0.65300   Biso      1.000     C          0.593931  
         C34       1.0000    0.47690   0.87540   0.49160   Biso      1.000     C          0.631566  
         C35       1.0000    0.61720   0.77740   0.66330   Biso      1.000     C          0.104288  
         C36       1.0000    0.93370   0.49660   0.84700   Biso      1.000     C          0.59372   
         C37       1.0000    0.93370   0.50340   0.15300   Biso      1.000     C          0.593705  
         C38       1.0000    0.67190   0.14870   0.67130   Biso      1.000     C          0.623022  
         C39       1.0000    0.63740   0.67790   0.29610   Biso      1.000     C          -0.150157           
         C40       1.0000    0.38990   0.32510   0.04310   Biso      1.000     C          -0.034829           
         C41       1.0000    0.58170   0.58620   0.49990   Biso      1.000     C          -0.114787           
         C42       1.0000    0.41360   0.76170   0.40310   Biso      1.000     C          -0.127913           
         C43       1.0000    0.23310   0.73270   0.38670   Biso      1.000     C          -0.103139           
         C44       1.0000    0.91560   0.23070   0.24090   Biso      1.000     C          0.082681  
         C45       1.0000    0.23310   0.23270   0.11330   Biso      1.000     C          -0.10345  
         C46       1.0000    0.33500   0.78560   0.86930   Biso      1.000     C          -0.099332           
         C47       1.0000    0.74230   0.81580   0.99010   Biso      1.000     C          0.584468  
         C48       1.0000    0.68800   0.91210   0.99710   Biso      1.000     C          -0.028118           
         C49       1.0000    0.52690   0.50000   0.50000   Biso      1.000     C          -0.093766           
         C50       1.0000    0.92490   0.66900   0.20510   Biso      1.000     C          -0.162396           
         C51       1.0000    0.92490   0.33100   0.79490   Biso      1.000     C          -0.16239  
         C52       1.0000    0.60540   0.11110   0.25100   Biso      1.000     C          0.084241  
         C53       1.0000    0.47690   0.12460   0.50840   Biso      1.000     C          0.631564  
         C54       1.0000    0.74220   0.00000   0.00000   Biso      1.000     C          -0.148308           
         C55       1.0000    0.89520   0.89420   0.82920   Biso      1.000     C          0.088691  
         C56       1.0000    0.09920   0.82680   0.45080   Biso      1.000     C          0.60283   
         C57       1.0000    0.90650   0.03860   0.22200   Biso      1.000     C          -0.165498           
         C58       1.0000    0.33500   0.71440   0.36930   Biso      1.000     C          -0.099299           
         C59       1.0000    0.68800   0.58790   0.49710   Biso      1.000     C          -0.028323           
         C60       1.0000    0.74220   0.50000   0.50000   Biso      1.000     C          -0.148344           
         C61       1.0000    0.52690   0.00000   0.00000   Biso      1.000     C          -0.093607           
         C62       1.0000    0.38990   0.17490   0.54310   Biso      1.000     C          -0.035163           
         C63       1.0000    0.41360   0.73830   0.90310   Biso      1.000     C          -0.128057           
         C64       1.0000    0.65500   0.22720   0.72410   Biso      1.000     C          0.031071  
         C65       1.0000    0.58170   0.41380   0.50010   Biso      1.000     C          -0.114783           
         C66       1.0000    0.65500   0.27280   0.22410   Biso      1.000     C          0.031171  
         C67       1.0000    0.67190   0.85130   0.32870   Biso      1.000     C          0.623025  
         C68       1.0000    0.29060   0.65580   0.97230   Biso      1.000     C          -0.124669           
         C69       1.0000    0.64490   0.79570   0.20860   Biso      1.000     C          -0.159115           
         C70       1.0000    0.09920   0.32680   0.04920   Biso      1.000     C          0.602319  
         C71       1.0000    0.61720   0.22260   0.33670   Biso      1.000     C          0.104289  
         C72       1.0000    0.91560   0.26930   0.74090   Biso      1.000     C          0.082771  
         C73       1.0000    0.89520   0.39420   0.67080   Biso      1.000     C          0.088802  
         C74       1.0000    0.68800   0.41210   0.50290   Biso      1.000     C          -0.028323           
         C75       1.0000    0.89520   0.60580   0.32920   Biso      1.000     C          0.088794  
         C76       1.0000    0.92170   0.07050   0.28710   Biso      1.000     C          0.023414  
         C77       1.0000    0.91560   0.76930   0.75910   Biso      1.000     C          0.08269   
         C78       1.0000    0.67190   0.35130   0.17130   Biso      1.000     C          0.622901  
         C79       1.0000    0.61720   0.72260   0.16330   Biso      1.000     C          0.104229  
         C80       1.0000    0.47690   0.62460   0.99160   Biso      1.000     C          0.631005  
         C81       1.0000    0.23310   0.26730   0.61330   Biso      1.000     C          -0.103143           
         C82       1.0000    0.67190   0.64870   0.82870   Biso      1.000     C          0.622909  
         C83       1.0000    0.41360   0.26170   0.09690   Biso      1.000     C          -0.128077           
         C84       1.0000    0.74230   0.18420   0.00990   Biso      1.000     C          0.584448  
         C85       1.0000    0.47690   0.37540   0.00840   Biso      1.000     C          0.631006  
         C86       1.0000    0.29060   0.15580   0.52770   Biso      1.000     C          -0.12453  
         C87       1.0000    0.58170   0.08620   0.00010   Biso      1.000     C          -0.11461  
         C88       1.0000    0.58170   0.91380   0.99990   Biso      1.000     C          -0.114623           
         C89       1.0000    0.92170   0.42950   0.78710   Biso      1.000     C          0.023434  
         C90       1.0000    0.20980   0.29810   0.06180   Biso      1.000     C          -0.006022           
         C91       1.0000    0.33500   0.28560   0.63070   Biso      1.000     C          -0.099301           
         C92       1.0000    0.61720   0.27740   0.83670   Biso      1.000     C          0.104226  
         C93       1.0000    0.33500   0.21440   0.13070   Biso      1.000     C          -0.099345           
         C94       1.0000    0.92170   0.57050   0.21290   Biso      1.000     C          0.023435  
         C95       1.0000    0.60540   0.88890   0.74900   Biso      1.000     C          0.084241  
         C96       1.0000    0.64490   0.20430   0.79140   Biso      1.000     C          -0.159121           
         H1        1.0000    0.81380   0.00000   0.00000   Biso      1.000     H          0.130534  
         H2        1.0000    0.54600   0.85510   0.00170   Biso      1.000     H          0.111718  
         H3        1.0000    0.61280   0.26240   0.88260   Biso      1.000     H          0.102732  
         H4        1.0000    0.61280   0.73760   0.11740   Biso      1.000     H          0.102729  
         H5        1.0000    0.61280   0.23760   0.38260   Biso      1.000     H          0.10274   
         H6        1.0000    0.93370   0.30500   0.83800   Biso      1.000     H          0.129931  
         H7        1.0000    0.75280   0.05300   0.40530   Biso      1.000     H          0.386074  
         H8        1.0000    0.64720   0.15960   0.15890   Biso      1.000     H          0.133216  
         H9        1.0000    0.35020   0.32970   0.66510   Biso      1.000     H          0.107875  
         H10       1.0000    0.54600   0.14490   0.99830   Biso      1.000     H          0.11172   
         H11       1.0000    0.18030   0.70100   0.36380   Biso      1.000     H          0.120274  
         H12       1.0000    0.75280   0.44700   0.90530   Biso      1.000     H          0.38547   
         H13       1.0000    0.65640   0.14100   0.80650   Biso      1.000     H          0.134922  
         H14       1.0000    0.87180   0.34710   0.97970   Biso      1.000     H          0.378149  
         H15       1.0000    0.58910   0.95150   0.76350   Biso      1.000     H          0.09978   
         H16       1.0000    0.27570   0.38900   0.99370   Biso      1.000     H          0.129411  
         H17       1.0000    0.87180   0.65290   0.02030   Biso      1.000     H          0.37816   
         H18       1.0000    0.18030   0.20100   0.13620   Biso      1.000     H          0.120272  
         H19       1.0000    0.90390   0.52780   0.71250   Biso      1.000     H          0.127906  
         H20       1.0000    0.18030   0.79900   0.86380   Biso      1.000     H          0.120292  
         H21       1.0000    0.90390   0.02780   0.78750   Biso      1.000     H          0.127858  
         H22       1.0000    0.35020   0.17030   0.16510   Biso      1.000     H          0.107863  
         H23       1.0000    0.88280   0.08240   0.12730   Biso      1.000     H          0.09465   
         H24       1.0000    0.92000   0.29740   0.24860   Biso      1.000     H          0.090225  
         H25       1.0000    0.65640   0.85900   0.19350   Biso      1.000     H          0.134928  
         H26       1.0000    0.18030   0.29900   0.63620   Biso      1.000     H          0.120274  
         H27       1.0000    0.92000   0.20260   0.74860   Biso      1.000     H          0.090276  
         H28       1.0000    0.87180   0.15290   0.47970   Biso      1.000     H          0.379155  
         H29       1.0000    0.75280   0.55300   0.09470   Biso      1.000     H          0.385477  
         H30       1.0000    0.87180   0.84710   0.52030   Biso      1.000     H          0.379147  
         H31       1.0000    0.54600   0.64490   0.50170   Biso      1.000     H          0.111586  
         H32       1.0000    0.58910   0.45150   0.73650   Biso      1.000     H          0.09978   
         H33       1.0000    0.48170   0.75170   0.39040   Biso      1.000     H          0.105139  
         H34       1.0000    0.48170   0.24830   0.60960   Biso      1.000     H          0.10514   
         H35       1.0000    0.88280   0.41760   0.62730   Biso      1.000     H          0.094758  
         H36       1.0000    0.48170   0.74830   0.89040   Biso      1.000     H          0.105133  
         H37       1.0000    0.48170   0.25170   0.10960   Biso      1.000     H          0.105127  
         H38       1.0000    0.58910   0.04850   0.23650   Biso      1.000     H          0.099782  
         H39       1.0000    0.65640   0.35900   0.30650   Biso      1.000     H          0.134983  
         H40       1.0000    0.93370   0.69500   0.16200   Biso      1.000     H          0.129922  
         H41       1.0000    0.93370   0.19500   0.33800   Biso      1.000     H          0.129959  
         H42       1.0000    0.64720   0.84040   0.84110   Biso      1.000     H          0.133213  
         H43       1.0000    0.88280   0.58240   0.37270   Biso      1.000     H          0.094753  
         H44       1.0000    0.90390   0.47220   0.28750   Biso      1.000     H          0.127903  
         H45       1.0000    0.61280   0.76240   0.61740   Biso      1.000     H          0.102744  
         H46       1.0000    0.64720   0.65960   0.34110   Biso      1.000     H          0.133239  
         H47       1.0000    0.35020   0.82970   0.83490   Biso      1.000     H          0.107875  
         H48       1.0000    0.92000   0.79740   0.25140   Biso      1.000     H          0.090274  
         H49       1.0000    0.75280   0.94700   0.59470   Biso      1.000     H          0.386066  
         H50       1.0000    0.65640   0.64100   0.69350   Biso      1.000     H          0.134982  
         H51       1.0000    0.27570   0.88900   0.50630   Biso      1.000     H          0.129393  
         H52       1.0000    0.64720   0.34040   0.65890   Biso      1.000     H          0.133237  
         H53       1.0000    0.93370   0.80500   0.66200   Biso      1.000     H          0.129979  
         H54       1.0000    0.45530   0.50000   0.50000   Biso      1.000     H          0.119886  
         H55       1.0000    0.45530   0.00000   0.00000   Biso      1.000     H          0.119975  
         H56       1.0000    0.81380   0.50000   0.50000   Biso      1.000     H          0.130469  
         H57       1.0000    0.54600   0.35510   0.49830   Biso      1.000     H          0.111588  
         H58       1.0000    0.90390   0.97220   0.21250   Biso      1.000     H          0.12784   
         H59       1.0000    0.27570   0.11100   0.49370   Biso      1.000     H          0.129398  
         H60       1.0000    0.35020   0.67030   0.33490   Biso      1.000     H          0.107884  
         H61       1.0000    0.88280   0.91760   0.87270   Biso      1.000     H          0.094667  
         H62       1.0000    0.92000   0.70260   0.75140   Biso      1.000     H          0.090237  
         H63       1.0000    0.58910   0.54850   0.26350   Biso      1.000     H          0.099788  
         H64       1.0000    0.27570   0.61100   0.00630   Biso      1.000     H          0.129431  
         N1        1.0000    0.59680   0.86790   0.68330   Biso      1.000     N          -0.23106  
         N2        1.0000    0.59680   0.63210   0.18330   Biso      1.000     N          -0.230859           
         N3        1.0000    0.90080   0.20040   0.17904   Biso      1.000     N          -0.209671           
         N4        1.0000    0.59680   0.13210   0.31670   Biso      1.000     N          -0.231066           
         N5        1.0000    0.90080   0.70040   0.32096   Biso      1.000     N          -0.209728           
         N6        1.0000    0.90080   0.29960   0.67904   Biso      1.000     N          -0.209726           
         N7        1.0000    0.90080   0.79960   0.82096   Biso      1.000     N          -0.209687           
         N8        1.0000    0.59680   0.36790   0.81670   Biso      1.000     N          -0.230855           
         Ni1       1.0000    0.70699   0.39774   0.02599   Biso      1.000     Ni          1.009225  
         Ni2       1.0000    0.88594   0.29906   0.09776   Biso      1.000     Ni          0.899726  
         Ni3       1.0000    0.96377   0.00000   0.50000   Biso      1.000     Ni          1.06272   
         Ni4       1.0000    0.56086   0.52400   0.11487   Biso      1.000     Ni          0.870766  
         Ni5       1.0000    0.88594   0.79906   0.40224   Biso      1.000     Ni          0.902272  
         Ni6       1.0000    0.70699   0.60226   0.97401   Biso      1.000     Ni          1.0092    
         Ni7       1.0000    0.70699   0.89774   0.47401   Biso      1.000     Ni          1.013696  
         Ni8       1.0000    0.56086   0.02400   0.38513   Biso      1.000     Ni          0.87179   
         Ni9       1.0000    0.96377   0.50000   0.00000   Biso      1.000     Ni          1.05399   
         Ni10      1.0000    0.56086   0.97600   0.61487   Biso      1.000     Ni          0.871775  
         Ni11      1.0000    0.88594   0.20094   0.59776   Biso      1.000     Ni          0.902285  
         Ni12      1.0000    0.56086   0.47600   0.88513   Biso      1.000     Ni          0.870739  
         Ni13      1.0000    0.88594   0.70094   0.90224   Biso      1.000     Ni          0.899887  
         Ni14      1.0000    0.70699   0.10226   0.52599   Biso      1.000     Ni          1.013696  
         O1        1.0000    0.95450   0.95540   0.59839   Biso      1.000     O          -0.553835           
         O2        1.0000    0.82990   0.18510   0.03621   Biso      1.000     O          -0.547245           
         O3        1.0000    0.08480   0.59650   0.98181   Biso      1.000     O          -0.543478           
         O4        1.0000    0.55080   0.40490   0.04491   Biso      1.000     O          -0.603347           
         O5        1.0000    0.08480   0.90350   0.48181   Biso      1.000     O          -0.545666           
         O6        1.0000    0.86190   0.11000   0.51891   Biso      1.000     O          -0.871494           
         O7        1.0000    0.47190   0.38620   0.94562   Biso      1.000     O          -0.535782           
         O8        1.0000    0.86190   0.89000   0.48109   Biso      1.000     O          -0.871482           
         O9        1.0000    0.95450   0.45540   0.90161   Biso      1.000     O          -0.552139           
         O10       1.0000    0.86190   0.39000   0.01891   Biso      1.000     O          -0.863873           
         O11       1.0000    0.69540   0.96337   0.56460   Biso      1.000     O          -0.828611           
         O12       1.0000    0.03280   0.23060   0.57166   Biso      1.000     O          -0.565962           
         O13       1.0000    0.82990   0.81490   0.96379   Biso      1.000     O          -0.547238           
         O14       1.0000    0.08480   0.40350   0.01819   Biso      1.000     O          -0.543525           
         O15       1.0000    0.82990   0.68510   0.46379   Biso      1.000     O          -0.547979           
         O16       1.0000    0.03280   0.76940   0.42834   Biso      1.000     O          -0.565961           
         O17       1.0000    0.69540   0.03663   0.43540   Biso      1.000     O          -0.828613           
         O18       1.0000    0.92010   0.58530   0.83713   Biso      1.000     O          -0.554257           
         O19       1.0000    0.03280   0.26940   0.07166   Biso      1.000     O          -0.565736           
         O20       1.0000    0.92010   0.08530   0.66287   Biso      1.000     O          -0.554799           
         O21       1.0000    0.69200   0.75810   0.50860   Biso      1.000     O          -0.576359           
         O22       1.0000    0.08480   0.09650   0.51819   Biso      1.000     O          -0.545653           
         O23       1.0000    0.69200   0.24190   0.49140   Biso      1.000     O          -0.576352           
         O24       1.0000    0.72510   0.33060   0.12104   Biso      1.000     O          -0.575076           
         O25       1.0000    0.95450   0.04460   0.40161   Biso      1.000     O          -0.553845           
         O26       1.0000    0.55080   0.59510   0.95509   Biso      1.000     O          -0.603337           
         O27       1.0000    0.62330   0.92720   0.31867   Biso      1.000     O          -0.550672           
         O28       1.0000    0.92010   0.41470   0.16287   Biso      1.000     O          -0.554252           
         O29       1.0000    0.69200   0.25810   0.99140   Biso      1.000     O          -0.575069           
         O30       1.0000    0.03280   0.73060   0.92834   Biso      1.000     O          -0.565681           
         O31       1.0000    0.86190   0.61000   0.98109   Biso      1.000     O          -0.863868           
         O32       1.0000    0.47190   0.11380   0.44562   Biso      1.000     O          -0.535348           
         O33       1.0000    0.72510   0.16940   0.62104   Biso      1.000     O          -0.575705           
         O34       1.0000    0.62330   0.07280   0.68133   Biso      1.000     O          -0.550675           
         O35       1.0000    0.47190   0.61380   0.05438   Biso      1.000     O          -0.535775           
         O36       1.0000    0.47190   0.88620   0.55438   Biso      1.000     O          -0.535356           
         O37       1.0000    0.62330   0.57280   0.81867   Biso      1.000     O          -0.550537           
         O38       1.0000    0.82990   0.31490   0.53621   Biso      1.000     O          -0.547981           
         O39       1.0000    0.55080   0.90490   0.45509   Biso      1.000     O          -0.603587           
         O40       1.0000    0.69540   0.46337   0.93540   Biso      1.000     O          -0.828086           
         O41       1.0000    0.62330   0.42720   0.18133   Biso      1.000     O          -0.550559           
         O42       1.0000    0.92010   0.91470   0.33713   Biso      1.000     O          -0.554802           
         O43       1.0000    0.69540   0.53663   0.06460   Biso      1.000     O          -0.828088           
         O44       1.0000    0.72510   0.83060   0.37896   Biso      1.000     O          -0.575702           
         O45       1.0000    0.72510   0.66940   0.87896   Biso      1.000     O          -0.575095           
         O46       1.0000    0.95450   0.54460   0.09839   Biso      1.000     O          -0.55217  
         O47       1.0000    0.55080   0.09510   0.54491   Biso      1.000     O          -0.603584           
         O48       1.0000    0.69200   0.74190   0.00860   Biso      1.000     O          -0.575049 