
##########################################################################
#               Crystallographic Information Format file
#               Produced by PyCifRW module
#
#  This is a CIF file.  CIF has been adopted by the International
#  Union of Crystallography as the standard for data archiving and
#  transmission.
#
#  For information on this file format, follow the CIF links at
#  http://www.iucr.org
##########################################################################

data_image0

_cell_length_a                          12.787
_cell_length_b                          15.302
_cell_length_c                          16.9531
_cell_angle_alpha                       90
_cell_angle_beta                        108.355
_cell_angle_gamma                       90
_symmetry_space_group_name_H-M          'P 1'
_symmetry_int_tables_number             1
loop_
  _symmetry_equiv_pos_as_xyz
         'x, y, z' 
loop_
  _atom_site_label
  _atom_site_occupancy
  _atom_site_fract_x
  _atom_site_fract_y
  _atom_site_fract_z
  _atom_site_thermal_displace_type
  _atom_site_B_iso_or_equiv
  _atom_site_type_symbol
  _atom_site_charge
         C1        1.0000    0.82740   0.99600   0.92360   Biso      1.000     C          0.536076  
         C2        1.0000    0.17260   0.49600   0.57640   Biso      1.000     C          0.536076  
         C3        1.0000    0.05560   0.58850   0.60900   Biso      1.000     C          0.556802  
         C4        1.0000    0.74640   0.68800   0.89800   Biso      1.000     C          0.56718   
         C5        1.0000    0.78660   0.64050   0.78430   Biso      1.000     C          0.549403  
         C6        1.0000    0.50560   0.39230   0.57870   Biso      1.000     C          0.539088  
         C7        1.0000    0.67010   0.45530   0.61410   Biso      1.000     C          0.5362779999999999  
         C8        1.0000    0.94440   0.08850   0.89100   Biso      1.000     C          0.556802  
         C9        1.0000    0.25360   0.18800   0.60200   Biso      1.000     C          0.56718   
         C10       1.0000    0.21340   0.14050   0.71570   Biso      1.000     C          0.549403  
         C11       1.0000    0.49440   0.89230   0.92130   Biso      1.000     C          0.539088  
         C12       1.0000    0.32990   0.95530   0.88590   Biso      1.000     C          0.536279  
         C13       1.0000    0.94440   0.41150   0.39100   Biso      1.000     C          0.556802  
         C14       1.0000    0.82740   0.50400   0.42360   Biso      1.000     C          0.536075  
         C15       1.0000    0.21340   0.35950   0.21570   Biso      1.000     C          0.549403  
         C16       1.0000    0.67010   0.04470   0.11410   Biso      1.000     C          0.5362779999999999  
         C17       1.0000    0.50560   0.10770   0.07870   Biso      1.000     C          0.539088  
         C18       1.0000    0.25360   0.31200   0.10200   Biso      1.000     C          0.56718   
         C19       1.0000    0.74640   0.81200   0.39800   Biso      1.000     C          0.56718   
         C20       1.0000    0.78660   0.85950   0.28430   Biso      1.000     C          0.549403  
         C21       1.0000    0.17260   0.00400   0.07640   Biso      1.000     C          0.536076  
         C22       1.0000    0.32990   0.54470   0.38590   Biso      1.000     C          0.5362779999999999  
         C23       1.0000    0.49440   0.60770   0.42130   Biso      1.000     C          0.539088  
         C24       1.0000    0.05560   0.91150   0.10900   Biso      1.000     C          0.556802  
         N1        1.0000    0.18710   0.14550   0.77320   Biso      1.000     N          -0.704603           
         N2        1.0000    0.02840   0.11290   0.89090   Biso      1.000     N          -0.700384           
         N3        1.0000    0.58310   0.88210   0.96300   Biso      1.000     N          -0.683334           
         N4        1.0000    0.39370   0.89870   0.86950   Biso      1.000     N          -0.41141400000000006          
         N5        1.0000    0.26610   0.00400   0.89370   Biso      1.000     N          -0.6687109999999999           
         N6        1.0000    0.24750   0.12420   0.65190   Biso      1.000     N          -0.422737           
         N7        1.0000    0.26240   0.23600   0.55470   Biso      1.000     N          -0.71115  
         N8        1.0000    0.84410   0.06480   0.88410   Biso      1.000     N          -0.425566           
         N9        1.0000    0.81290   0.85450   0.22680   Biso      1.000     N          -0.704603           
         N10       1.0000    0.73390   0.50400   0.60630   Biso      1.000     N          -0.6687109999999999           
         N11       1.0000    0.60630   0.39870   0.63050   Biso      1.000     N          -0.41141400000000006          
         N12       1.0000    0.41690   0.38210   0.53700   Biso      1.000     N          -0.683334           
         N13       1.0000    0.81290   0.64550   0.72680   Biso      1.000     N          -0.704603           
         N14       1.0000    0.80510   0.56460   0.45370   Biso      1.000     N          -0.647504           
         N15       1.0000    0.75250   0.62420   0.84810   Biso      1.000     N          -0.422737           
         N16       1.0000    0.73760   0.73600   0.94530   Biso      1.000     N          -0.71115  
         N17       1.0000    0.97160   0.61290   0.60910   Biso      1.000     N          -0.700384           
         N18       1.0000    0.80510   0.93540   0.95370   Biso      1.000     N          -0.647504           
         N19       1.0000    0.84410   0.43520   0.38410   Biso      1.000     N          -0.425566           
         N20       1.0000    0.19490   0.43540   0.54630   Biso      1.000     N          -0.647504           
         N21       1.0000    0.26240   0.26400   0.05470   Biso      1.000     N          -0.71115  
         N22       1.0000    0.73390   0.99600   0.10630   Biso      1.000     N          -0.6687109999999999           
         N23       1.0000    0.60630   0.10130   0.13050   Biso      1.000     N          -0.41141400000000006          
         N24       1.0000    0.41690   0.11790   0.03700   Biso      1.000     N          -0.683334           
         N25       1.0000    0.15590   0.56480   0.61590   Biso      1.000     N          -0.425566           
         N26       1.0000    0.75250   0.87580   0.34810   Biso      1.000     N          -0.422737           
         N27       1.0000    0.02840   0.38710   0.39090   Biso      1.000     N          -0.700384           
         N28       1.0000    0.97160   0.88710   0.10910   Biso      1.000     N          -0.700384           
         N29       1.0000    0.73760   0.76400   0.44530   Biso      1.000     N          -0.71115  
         N30       1.0000    0.19490   0.06460   0.04630   Biso      1.000     N          -0.647504           
         N31       1.0000    0.26610   0.49600   0.39370   Biso      1.000     N          -0.6687109999999999           
         N32       1.0000    0.39370   0.60130   0.36950   Biso      1.000     N          -0.41141400000000006          
         N33       1.0000    0.58310   0.61790   0.46300   Biso      1.000     N          -0.683334           
         N34       1.0000    0.18710   0.35450   0.27320   Biso      1.000     N          -0.704603           
         N35       1.0000    0.24750   0.37580   0.15190   Biso      1.000     N          -0.422737           
         N36       1.0000    0.15590   0.93520   0.11590   Biso      1.000     N          -0.425566           
         Nd1       1.0000    0.76983   0.65986   0.56783   Biso      1.000     Nd          2.090577  
         Nd2       1.0000    0.23017   0.15986   0.93217   Biso      1.000     Nd          2.090577  
         Nd3       1.0000    0.23017   0.34014   0.43217   Biso      1.000     Nd          2.090577  
         Nd4       1.0000    0.76983   0.84014   0.06783   Biso      1.000     Nd          2.090577 