
##########################################################################
#               Crystallographic Information Format file
#               Produced by PyCifRW module
#
#  This is a CIF file.  CIF has been adopted by the International
#  Union of Crystallography as the standard for data archiving and
#  transmission.
#
#  For information on this file format, follow the CIF links at
#  http://www.iucr.org
##########################################################################

data_image0

_cell_length_a                          13.1554
_cell_length_b                          13.7014
_cell_length_c                          22.7273
_cell_angle_alpha                       100.366
_cell_angle_beta                        90
_cell_angle_gamma                       90
_symmetry_space_group_name_H-M          'P 1'
_symmetry_int_tables_number             1
loop_
  _symmetry_equiv_pos_as_xyz
         'x, y, z' 
loop_
  _atom_site_label
  _atom_site_occupancy
  _atom_site_fract_x
  _atom_site_fract_y
  _atom_site_fract_z
  _atom_site_thermal_displace_type
  _atom_site_B_iso_or_equiv
  _atom_site_type_symbol
  _atom_site_charge
         C1        1.0000    0.58570   0.94360   0.75820   Biso      1.000     C          0.014712  
         C2        1.0000    0.84610   0.86710   0.25250   Biso      1.000     C          -0.007937           
         C3        1.0000    0.24880   0.50010   0.76010   Biso      1.000     C          0.259782  
         C4        1.0000    0.49990   0.46510   0.79710   Biso      1.000     C          0.661359  
         C5        1.0000    0.33440   0.63200   0.25300   Biso      1.000     C          3.9e-05   
         C6        1.0000    0.16090   0.74100   0.76570   Biso      1.000     C          0.673369  
         C7        1.0000    0.01810   0.96290   0.28770   Biso      1.000     C          0.667041  
         C8        1.0000    0.66560   0.36800   0.74700   Biso      1.000     C          4.1e-05   
         C9        1.0000    0.91430   0.94360   0.25820   Biso      1.000     C          0.014673  
         C10       1.0000    0.60470   0.44570   0.77020   Biso      1.000     C          -0.017807           
         C11       1.0000    0.34310   0.23040   0.22880   Biso      1.000     C          0.653709  
         C12       1.0000    0.41430   0.05640   0.24180   Biso      1.000     C          0.014712  
         C13       1.0000    0.25120   0.50010   0.26010   Biso      1.000     C          0.259752  
         C14       1.0000    0.83910   0.25900   0.23430   Biso      1.000     C          0.673368  
         C15       1.0000    0.00010   0.46510   0.29710   Biso      1.000     C          0.661219  
         C16       1.0000    0.89530   0.44570   0.27020   Biso      1.000     C          -0.017796           
         C17       1.0000    0.27890   0.01510   0.28510   Biso      1.000     C          0.234331  
         C18       1.0000    0.51810   0.03710   0.21230   Biso      1.000     C          0.667106  
         C19       1.0000    0.65390   0.86710   0.75250   Biso      1.000     C          -0.007887           
         C20       1.0000    0.15390   0.13290   0.74750   Biso      1.000     C          -0.007936           
         C21       1.0000    0.99990   0.53490   0.70290   Biso      1.000     C          0.661218  
         C22       1.0000    0.33910   0.74100   0.26570   Biso      1.000     C          0.673341  
         C23       1.0000    0.84310   0.76960   0.27120   Biso      1.000     C          0.65362   
         C24       1.0000    0.15690   0.23040   0.72880   Biso      1.000     C          0.65362   
         C25       1.0000    0.98190   0.03710   0.71230   Biso      1.000     C          0.667041  
         C26       1.0000    0.48190   0.96290   0.78770   Biso      1.000     C          0.667106  
         C27       1.0000    0.10470   0.55430   0.72980   Biso      1.000     C          -0.017797           
         C28       1.0000    0.74880   0.49990   0.73990   Biso      1.000     C          0.259753  
         C29       1.0000    0.39530   0.55430   0.22980   Biso      1.000     C          -0.017806           
         C30       1.0000    0.50010   0.53490   0.20290   Biso      1.000     C          0.66136   
         C31       1.0000    0.66090   0.25900   0.73430   Biso      1.000     C          0.673341  
         C32       1.0000    0.22110   0.01510   0.78510   Biso      1.000     C          0.234253  
         C33       1.0000    0.83440   0.36800   0.24700   Biso      1.000     C          8.6e-05   
         C34       1.0000    0.77890   0.98490   0.21490   Biso      1.000     C          0.234253  
         C35       1.0000    0.08570   0.05640   0.74180   Biso      1.000     C          0.014674  
         C36       1.0000    0.34610   0.13290   0.24750   Biso      1.000     C          -0.007887           
         C37       1.0000    0.65690   0.76960   0.77120   Biso      1.000     C          0.653709  
         C38       1.0000    0.16560   0.63200   0.75300   Biso      1.000     C          8.5e-05   
         C39       1.0000    0.75120   0.49990   0.23990   Biso      1.000     C          0.259781  
         C40       1.0000    0.72110   0.98490   0.71490   Biso      1.000     C          0.234332  
         Ce1       1.0000    0.39899   0.72393   0.82147   Biso      1.000     Ce          2.151076  
         Ce2       1.0000    0.39915   0.21878   0.77619   Biso      1.000     Ce          2.148488  
         Ce3       1.0000    0.10085   0.21878   0.27619   Biso      1.000     Ce          2.148325  
         Ce4       1.0000    0.60101   0.27607   0.17853   Biso      1.000     Ce          2.151072  
         Ce5       1.0000    0.89915   0.78122   0.72381   Biso      1.000     Ce          2.148327  
         Ce6       1.0000    0.89899   0.27607   0.67853   Biso      1.000     Ce          2.151599  
         Ce7       1.0000    0.10101   0.72393   0.32147   Biso      1.000     Ce          2.151599  
         Ce8       1.0000    0.60085   0.78122   0.22381   Biso      1.000     Ce          2.148486  
         H1        1.0000    0.20070   0.45730   0.26860   Biso      1.000     H          0.091249  
         H2        1.0000    0.14450   0.40850   0.72090   Biso      1.000     H          0.308944  
         H3        1.0000    0.26610   0.97720   0.80310   Biso      1.000     H          0.098497  
         H4        1.0000    0.76610   0.02280   0.69690   Biso      1.000     H          0.098566  
         H5        1.0000    0.23390   0.97720   0.30310   Biso      1.000     H          0.098566  
         H6        1.0000    0.10440   0.92750   0.76590   Biso      1.000     H          0.294719  
         H7        1.0000    0.39560   0.92750   0.26590   Biso      1.000     H          0.294767  
         H8        1.0000    0.35550   0.40850   0.22090   Biso      1.000     H          0.308905  
         H9        1.0000    0.73390   0.02280   0.19690   Biso      1.000     H          0.098496  
         H10       1.0000    0.89560   0.07250   0.23410   Biso      1.000     H          0.294718  
         H11       1.0000    0.29930   0.45730   0.76860   Biso      1.000     H          0.091247  
         H12       1.0000    0.79930   0.54270   0.73140   Biso      1.000     H          0.091248  
         H13       1.0000    0.85550   0.59150   0.27910   Biso      1.000     H          0.308944  
         H14       1.0000    0.70070   0.54270   0.23140   Biso      1.000     H          0.091247  
         H15       1.0000    0.64450   0.59150   0.77910   Biso      1.000     H          0.308906  
         H16       1.0000    0.60440   0.07250   0.73410   Biso      1.000     H          0.294768  
         N1        1.0000    0.74340   0.40360   0.22680   Biso      1.000     N          -0.447152           
         N2        1.0000    0.86960   0.01530   0.23540   Biso      1.000     N          -0.212439           
         N3        1.0000    0.33790   0.46910   0.23350   Biso      1.000     N          -0.243428           
         N4        1.0000    0.76000   0.89230   0.22340   Biso      1.000     N          -0.462737           
         N5        1.0000    0.24000   0.10770   0.77660   Biso      1.000     N          -0.462738           
         N6        1.0000    0.66210   0.53090   0.76650   Biso      1.000     N          -0.243429           
         N7        1.0000    0.63040   0.01530   0.73540   Biso      1.000     N          -0.212419           
         N8        1.0000    0.74000   0.89230   0.72340   Biso      1.000     N          -0.462496           
         N9        1.0000    0.16210   0.46910   0.73350   Biso      1.000     N          -0.2434   
         N10       1.0000    0.24340   0.59640   0.27320   Biso      1.000     N          -0.447097           
         N11       1.0000    0.83790   0.53090   0.26650   Biso      1.000     N          -0.243402           
         N12       1.0000    0.25660   0.59640   0.77320   Biso      1.000     N          -0.447152           
         N13       1.0000    0.75660   0.40360   0.72680   Biso      1.000     N          -0.447096           
         N14       1.0000    0.36960   0.98470   0.26460   Biso      1.000     N          -0.212418           
         N15       1.0000    0.13040   0.98470   0.76460   Biso      1.000     N          -0.212441           
         N16       1.0000    0.26000   0.10770   0.27660   Biso      1.000     N          -0.462496           
         O1        1.0000    0.05070   0.39050   0.30520   Biso      1.000     O          -0.677085           
         O2        1.0000    0.73500   0.41470   0.99450   Biso      1.000     O          -0.829407           
         O3        1.0000    0.93600   0.25520   0.89860   Biso      1.000     O          -0.839057           
         O4        1.0000    0.26770   0.79100   0.28960   Biso      1.000     O          -0.598873           
         O5        1.0000    0.06400   0.74480   0.10140   Biso      1.000     O          -0.839059           
         O6        1.0000    0.68400   0.40600   0.39140   Biso      1.000     O          -0.794707           
         O7        1.0000    0.53500   0.40400   0.52800   Biso      1.000     O          -0.601095           
         O8        1.0000    0.95270   0.94830   0.70510   Biso      1.000     O          -0.695942           
         O9        1.0000    0.04730   0.05170   0.29490   Biso      1.000     O          -0.695941           
         O10       1.0000    0.95400   0.73100   0.94750   Biso      1.000     O          -0.809504           
         O11       1.0000    0.07780   0.78300   0.75180   Biso      1.000     O          -0.73073  
         O12       1.0000    0.23500   0.58530   0.50550   Biso      1.000     O          -0.829437           
         O13       1.0000    0.87700   0.75300   0.05680   Biso      1.000     O          -0.865994           
         O14       1.0000    0.47300   0.39500   0.45340   Biso      1.000     O          -0.729786           
         O15       1.0000    0.85800   0.27160   0.01290   Biso      1.000     O          -0.864798           
         O16       1.0000    0.21860   0.48400   0.90180   Biso      1.000     O          -0.877876           
         O17       1.0000    0.56630   0.10780   0.19900   Biso      1.000     O          -0.654544           
         O18       1.0000    0.25950   0.27630   0.23620   Biso      1.000     O          -0.626702           
         O19       1.0000    0.81700   0.60400   0.90240   Biso      1.000     O          -0.835603           
         O20       1.0000    0.55070   0.60950   0.19480   Biso      1.000     O          -0.67759  
         O21       1.0000    0.52820   0.44860   0.18870   Biso      1.000     O          -0.644634           
         O22       1.0000    0.45400   0.26900   0.55250   Biso      1.000     O          -0.809485           
         O23       1.0000    0.75600   0.61160   0.51240   Biso      1.000     O          -0.808288           
         O24       1.0000    0.91780   0.73450   0.29390   Biso      1.000     O          -0.671224           
         O25       1.0000    0.09380   0.62680   0.88330   Biso      1.000     O          -0.894095           
         O26       1.0000    0.07000   0.49480   0.06050   Biso      1.000     O          -0.729605           
         O27       1.0000    0.14200   0.72840   0.98710   Biso      1.000     O          -0.864791           
         O28       1.0000    0.76500   0.41470   0.49450   Biso      1.000     O          -0.829433           
         O29       1.0000    0.23230   0.79100   0.78960   Biso      1.000     O          -0.598994           
         O30       1.0000    0.54730   0.94830   0.20510   Biso      1.000     O          -0.696308           
         O31       1.0000    0.04600   0.26900   0.05250   Biso      1.000     O          -0.809509           
         O32       1.0000    0.57040   0.68870   0.32280   Biso      1.000     O          -0.838176           
         O33       1.0000    0.38560   0.49760   0.48080   Biso      1.000     O          -0.625414           
         O34       1.0000    0.93370   0.10780   0.69900   Biso      1.000     O          -0.6545   
         O35       1.0000    0.25600   0.38840   0.98760   Biso      1.000     O          -0.808397           
         O36       1.0000    0.64200   0.27160   0.51290   Biso      1.000     O          -0.865073           
         O37       1.0000    0.40620   0.62680   0.38330   Biso      1.000     O          -0.894667           
         O38       1.0000    0.41800   0.35650   0.35780   Biso      1.000     O          -0.871641           
         O39       1.0000    0.93000   0.50520   0.93950   Biso      1.000     O          -0.729627           
         O40       1.0000    0.94930   0.60950   0.69480   Biso      1.000     O          -0.677085           
         O41       1.0000    0.43000   0.49480   0.56050   Biso      1.000     O          -0.729661           
         O42       1.0000    0.31600   0.59400   0.60860   Biso      1.000     O          -0.794708           
         O43       1.0000    0.12300   0.24700   0.94320   Biso      1.000     O          -0.865997           
         O44       1.0000    0.57780   0.21700   0.74820   Biso      1.000     O          -0.730679           
         O45       1.0000    0.31700   0.39600   0.59760   Biso      1.000     O          -0.836228           
         O46       1.0000    0.43370   0.89220   0.80100   Biso      1.000     O          -0.654544           
         O47       1.0000    0.37700   0.24700   0.44320   Biso      1.000     O          -0.866606           
         O48       1.0000    0.76770   0.20900   0.21040   Biso      1.000     O          -0.598993           
         O49       1.0000    0.91800   0.64350   0.14220   Biso      1.000     O          -0.87106  
         O50       1.0000    0.97180   0.44860   0.68870   Biso      1.000     O          -0.644416           
         O51       1.0000    0.35800   0.72840   0.48710   Biso      1.000     O          -0.865088           
         O52       1.0000    0.06630   0.89220   0.30100   Biso      1.000     O          -0.654501           
         O53       1.0000    0.92960   0.68870   0.82280   Biso      1.000     O          -0.836446           
         O54       1.0000    0.26500   0.58530   0.00550   Biso      1.000     O          -0.829379           
         O55       1.0000    0.45850   0.50480   0.65760   Biso      1.000     O          -0.887841           
         O56       1.0000    0.41780   0.26550   0.20610   Biso      1.000     O          -0.671397           
         O57       1.0000    0.03500   0.59600   0.97200   Biso      1.000     O          -0.60105  
         O58       1.0000    0.59380   0.37320   0.61670   Biso      1.000     O          -0.894659           
         O59       1.0000    0.79880   0.33180   0.59480   Biso      1.000     O          -0.937021           
         O60       1.0000    0.02700   0.39500   0.95340   Biso      1.000     O          -0.729461           
         O61       1.0000    0.74400   0.61160   0.01240   Biso      1.000     O          -0.808418           
         O62       1.0000    0.73230   0.20900   0.71040   Biso      1.000     O          -0.598873           
         O63       1.0000    0.57000   0.50520   0.43950   Biso      1.000     O          -0.729648           
         O64       1.0000    0.47180   0.55140   0.81130   Biso      1.000     O          -0.644634           
         O65       1.0000    0.54600   0.73100   0.44750   Biso      1.000     O          -0.809485           
         O66       1.0000    0.78010   0.71090   0.63060   Biso      1.000     O          -0.865406           
         O67       1.0000    0.21990   0.28910   0.36940   Biso      1.000     O          -0.865416           
         O68       1.0000    0.42220   0.78300   0.25180   Biso      1.000     O          -0.730679           
         O69       1.0000    0.24400   0.38840   0.48760   Biso      1.000     O          -0.808295           
         O70       1.0000    0.97300   0.60500   0.04660   Biso      1.000     O          -0.729458           
         O71       1.0000    0.41230   0.69920   0.71110   Biso      1.000     O          -0.869282           
         O72       1.0000    0.42960   0.31130   0.67720   Biso      1.000     O          -0.838174           
         O73       1.0000    0.24050   0.27630   0.73620   Biso      1.000     O          -0.626397           
         O74       1.0000    0.08200   0.35650   0.85780   Biso      1.000     O          -0.871062           
         O75       1.0000    0.46500   0.59600   0.47200   Biso      1.000     O          -0.601152           
         O76       1.0000    0.28140   0.48400   0.40180   Biso      1.000     O          -0.878345           
         O77       1.0000    0.95850   0.49520   0.84240   Biso      1.000     O          -0.887262           
         O78       1.0000    0.28010   0.28910   0.86940   Biso      1.000     O          -0.863949           
         O79       1.0000    0.58220   0.73450   0.79390   Biso      1.000     O          -0.671396           
         O80       1.0000    0.08220   0.26550   0.70610   Biso      1.000     O          -0.671224           
         O81       1.0000    0.44930   0.39050   0.80520   Biso      1.000     O          -0.677588           
         O82       1.0000    0.20120   0.66820   0.40520   Biso      1.000     O          -0.93704  
         O83       1.0000    0.11440   0.49760   0.98080   Biso      1.000     O          -0.62539  
         O84       1.0000    0.74050   0.72370   0.76380   Biso      1.000     O          -0.6267   
         O85       1.0000    0.54150   0.49520   0.34240   Biso      1.000     O          -0.887832           
         O86       1.0000    0.61440   0.50240   0.51920   Biso      1.000     O          -0.625409           
         O87       1.0000    0.70120   0.33180   0.09480   Biso      1.000     O          -0.935599           
         O88       1.0000    0.91230   0.30080   0.78890   Biso      1.000     O          -0.867754           
         O89       1.0000    0.62300   0.75300   0.55680   Biso      1.000     O          -0.866619           
         O90       1.0000    0.43600   0.74480   0.60140   Biso      1.000     O          -0.83949  
         O91       1.0000    0.71990   0.71090   0.13060   Biso      1.000     O          -0.863938           
         O92       1.0000    0.08770   0.69920   0.21110   Biso      1.000     O          -0.867744           
         O93       1.0000    0.92220   0.21700   0.24820   Biso      1.000     O          -0.73073  
         O94       1.0000    0.29880   0.66820   0.90520   Biso      1.000     O          -0.935617           
         O95       1.0000    0.96500   0.40400   0.02800   Biso      1.000     O          -0.600917           
         O96       1.0000    0.18300   0.39600   0.09760   Biso      1.000     O          -0.835595           
         O97       1.0000    0.81600   0.40600   0.89140   Biso      1.000     O          -0.79443  
         O98       1.0000    0.18400   0.59400   0.10860   Biso      1.000     O          -0.794403           
         O99       1.0000    0.68300   0.60400   0.40240   Biso      1.000     O          -0.836236           
         O100      1.0000    0.58770   0.30080   0.28890   Biso      1.000     O          -0.86928  
         O101      1.0000    0.88560   0.50240   0.01920   Biso      1.000     O          -0.625277           
         O102      1.0000    0.45270   0.05170   0.79490   Biso      1.000     O          -0.696308           
         O103      1.0000    0.04150   0.50480   0.15760   Biso      1.000     O          -0.887269           
         O104      1.0000    0.75950   0.72370   0.26380   Biso      1.000     O          -0.626396           
         O105      1.0000    0.90620   0.37320   0.11670   Biso      1.000     O          -0.894116           
         O106      1.0000    0.07040   0.31130   0.17720   Biso      1.000     O          -0.836432           
         O107      1.0000    0.52700   0.60500   0.54660   Biso      1.000     O          -0.729808           
         O108      1.0000    0.71860   0.51600   0.59820   Biso      1.000     O          -0.878331           
         O109      1.0000    0.78140   0.51600   0.09820   Biso      1.000     O          -0.877879           
         O110      1.0000    0.58200   0.64350   0.64220   Biso      1.000     O          -0.871645           
         O111      1.0000    0.02820   0.55140   0.31130   Biso      1.000     O          -0.644415           
         O112      1.0000    0.56400   0.25520   0.39860   Biso      1.000     O          -0.8395   
         Si1       1.0000    0.00000   0.50000   0.00000   Biso      1.000     Si          1.988647  
         Si2       1.0000    0.50000   0.50000   0.50000   Biso      1.000     Si          1.990302  
         W1        1.0000    0.48805   0.76181   0.52395   Biso      1.000     W          1.770248  
         W2        1.0000    0.98805   0.23819   0.97605   Biso      1.000     W          1.772397  
         W3        1.0000    0.31079   0.35508   0.41311   Biso      1.000     W          2.55309   
         W4        1.0000    0.94137   0.36792   0.85785   Biso      1.000     W          2.572453  
         W5        1.0000    0.05863   0.63208   0.14215   Biso      1.000     W          2.572442  
         W6        1.0000    0.44137   0.63208   0.64215   Biso      1.000     W          2.57226   
         W7        1.0000    0.30098   0.61763   0.43764   Biso      1.000     W          2.583956  
         W8        1.0000    0.55863   0.36792   0.35785   Biso      1.000     W          2.57225   
         W9        1.0000    0.74799   0.51000   0.44262   Biso      1.000     W          1.773302  
         W10       1.0000    0.04855   0.37065   0.11991   Biso      1.000     W          2.555813  
         W11       1.0000    0.68921   0.64492   0.58689   Biso      1.000     W          2.553071  
         W12       1.0000    0.19902   0.61763   0.93764   Biso      1.000     W          2.584266  
         W13       1.0000    0.54855   0.62935   0.38009   Biso      1.000     W          2.555598  
         W14       1.0000    0.18921   0.35508   0.91311   Biso      1.000     W          2.55321   
         W15       1.0000    0.75201   0.51000   0.94262   Biso      1.000     W          1.776172  
         W16       1.0000    0.81079   0.64492   0.08689   Biso      1.000     W          2.55319   
         W17       1.0000    0.51195   0.23819   0.47605   Biso      1.000     W          1.770208  
         W18       1.0000    0.24799   0.49000   0.05738   Biso      1.000     W          1.776133  
         W19       1.0000    0.69902   0.38237   0.56236   Biso      1.000     W          2.583901  
         W20       1.0000    0.80098   0.38237   0.06236   Biso      1.000     W          2.584236  
         W21       1.0000    0.95145   0.62935   0.88009   Biso      1.000     W          2.555834  
         W22       1.0000    0.01195   0.76181   0.02395   Biso      1.000     W          1.772413  
         W23       1.0000    0.45145   0.37065   0.61991   Biso      1.000     W          2.555586  
         W24       1.0000    0.25201   0.49000   0.55738   Biso      1.000     W          1.77332 