
##########################################################################
#               Crystallographic Information Format file
#               Produced by PyCifRW module
#
#  This is a CIF file.  CIF has been adopted by the International
#  Union of Crystallography as the standard for data archiving and
#  transmission.
#
#  For information on this file format, follow the CIF links at
#  http://www.iucr.org
##########################################################################

data_image0

_cell_length_a                          8.5085
_cell_length_b                          16.0156
_cell_length_c                          27.9393
_cell_angle_alpha                       90
_cell_angle_beta                        90
_cell_angle_gamma                       90
_symmetry_space_group_name_H-M          'P 1'
_symmetry_int_tables_number             1
loop_
  _symmetry_equiv_pos_as_xyz
         'x, y, z' 
loop_
  _atom_site_label
  _atom_site_occupancy
  _atom_site_fract_x
  _atom_site_fract_y
  _atom_site_fract_z
  _atom_site_thermal_displace_type
  _atom_site_B_iso_or_equiv
  _atom_site_type_symbol
  _atom_site_charge
         C1        1.0000    0.42190   0.17350   0.75500   Biso      1.000     C          0.684476  
         C2        1.0000    0.64900   0.61810   0.22330   Biso      1.000     C          -0.086108           
         C3        1.0000    0.70700   0.37260   0.30000   Biso      1.000     C          0.082989  
         C4        1.0000    0.85300   0.38900   0.27830   Biso      1.000     C          -0.086453           
         C5        1.0000    0.54520   0.12350   0.04300   Biso      1.000     C          0.085099  
         C6        1.0000    0.84100   0.52520   0.31530   Biso      1.000     C          -0.089144           
         C7        1.0000    0.64990   0.48670   0.18550   Biso      1.000     C          -0.0878   
         C8        1.0000    0.56900   0.68170   0.25580   Biso      1.000     C          0.680809  
         C9        1.0000    0.91200   0.61030   0.32390   Biso      1.000     C          0.693756  
         C10       1.0000    0.42040   0.23670   0.09070   Biso      1.000     C          0.646277  
         C11       1.0000    0.29860   0.86650   0.79600   Biso      1.000     C          0.091135  
         C12       1.0000    0.04470   0.38160   0.03910   Biso      1.000     C          0.081029  
         C13       1.0000    0.08400   0.09640   0.82480   Biso      1.000     C          0.68191   
         C14       1.0000    0.91800   0.26640   0.08820   Biso      1.000     C          0.659991  
         C15       1.0000    0.91790   0.26610   0.99830   Biso      1.000     C          -0.059106           
         C16       1.0000    0.19610   0.99660   0.66670   Biso      1.000     C          0.062857  
         C17       1.0000    0.30260   0.99220   0.83270   Biso      1.000     C          0.067381  
         C18       1.0000    0.95670   0.30510   0.04210   Biso      1.000     C          -0.083221           
         C19       1.0000    0.07370   0.95320   0.78650   Biso      1.000     C          -0.071269           
         C20       1.0000    0.96810   0.30260   0.95660   Biso      1.000     C          -0.068794           
         C21       1.0000    0.41810   0.03370   0.71310   Biso      1.000     C          -0.063284           
         C22       1.0000    0.14900   0.88190   0.77670   Biso      1.000     C          -0.086071           
         C23       1.0000    0.20700   0.12740   0.70000   Biso      1.000     C          0.082989  
         C24       1.0000    0.35300   0.11100   0.72170   Biso      1.000     C          -0.086451           
         C25       1.0000    0.04520   0.37650   0.95700   Biso      1.000     C          0.085115  
         C26       1.0000    0.34100   0.97480   0.68470   Biso      1.000     C          -0.08914  
         C27       1.0000    0.14990   0.01330   0.81450   Biso      1.000     C          -0.087796           
         C28       1.0000    0.06900   0.81830   0.74420   Biso      1.000     C          0.680806  
         C29       1.0000    0.91810   0.46630   0.28690   Biso      1.000     C          -0.063282           
         C30       1.0000    0.46810   0.19740   0.04340   Biso      1.000     C          -0.068784           
         C31       1.0000    0.57370   0.54680   0.21350   Biso      1.000     C          -0.071232           
         C32       1.0000    0.45670   0.19490   0.95790   Biso      1.000     C          -0.083222           
         C33       1.0000    0.70140   0.36650   0.70400   Biso      1.000     C          0.091135  
         C34       1.0000    0.95530   0.88160   0.46090   Biso      1.000     C          0.081029  
         C35       1.0000    0.91600   0.59640   0.67520   Biso      1.000     C          0.68191   
         C36       1.0000    0.08200   0.76640   0.41180   Biso      1.000     C          0.659991  
         C37       1.0000    0.08210   0.76610   0.50170   Biso      1.000     C          -0.059105           
         C38       1.0000    0.80390   0.49660   0.83330   Biso      1.000     C          0.062857  
         C39       1.0000    0.69740   0.49220   0.66730   Biso      1.000     C          0.067381  
         C40       1.0000    0.04330   0.80510   0.45790   Biso      1.000     C          -0.083221           
         C41       1.0000    0.92630   0.45320   0.71350   Biso      1.000     C          -0.071269           
         C42       1.0000    0.03190   0.80260   0.54340   Biso      1.000     C          -0.068794           
         C43       1.0000    0.58190   0.53370   0.78690   Biso      1.000     C          -0.063284           
         C44       1.0000    0.85100   0.38190   0.72330   Biso      1.000     C          -0.086071           
         C45       1.0000    0.79300   0.62740   0.80000   Biso      1.000     C          0.082989  
         C46       1.0000    0.41200   0.88970   0.67610   Biso      1.000     C          0.693755  
         C47       1.0000    0.64700   0.61100   0.77830   Biso      1.000     C          -0.086451           
         C48       1.0000    0.65900   0.47480   0.81530   Biso      1.000     C          -0.08914  
         C49       1.0000    0.85010   0.51330   0.68550   Biso      1.000     C          -0.087796           
         C50       1.0000    0.93100   0.31830   0.75580   Biso      1.000     C          0.680806  
         C51       1.0000    0.58800   0.38970   0.82390   Biso      1.000     C          0.693755  
         C52       1.0000    0.07960   0.76330   0.59070   Biso      1.000     C          0.646278  
         C53       1.0000    0.92190   0.32650   0.24500   Biso      1.000     C          0.684476  
         C54       1.0000    0.79860   0.63350   0.20400   Biso      1.000     C          0.091139  
         C55       1.0000    0.54470   0.11840   0.96090   Biso      1.000     C          0.081029  
         C56       1.0000    0.58400   0.40360   0.17520   Biso      1.000     C          0.68191   
         C57       1.0000    0.41800   0.23360   0.91180   Biso      1.000     C          0.659991  
         C58       1.0000    0.41790   0.23390   0.00170   Biso      1.000     C          -0.0591   
         C59       1.0000    0.69610   0.50340   0.33330   Biso      1.000     C          0.062861  
         C60       1.0000    0.80260   0.50780   0.16730   Biso      1.000     C          0.067381  
         C61       1.0000    0.95480   0.87650   0.54300   Biso      1.000     C          0.085115  
         C62       1.0000    0.92040   0.26330   0.90930   Biso      1.000     C          0.646278  
         C63       1.0000    0.57810   0.67350   0.74500   Biso      1.000     C          0.684476  
         C64       1.0000    0.53190   0.69740   0.45660   Biso      1.000     C          -0.068801           
         C65       1.0000    0.42630   0.04680   0.28650   Biso      1.000     C          -0.071269           
         C66       1.0000    0.14700   0.88900   0.22170   Biso      1.000     C          -0.086453           
         C67       1.0000    0.45530   0.61840   0.53910   Biso      1.000     C          0.081029  
         C68       1.0000    0.29300   0.87260   0.20000   Biso      1.000     C          0.082989  
         C69       1.0000    0.20140   0.13350   0.29600   Biso      1.000     C          0.091135  
         C70       1.0000    0.07810   0.82650   0.25500   Biso      1.000     C          0.684476  
         C71       1.0000    0.35100   0.11810   0.27670   Biso      1.000     C          -0.086071           
         C72       1.0000    0.35010   0.98670   0.31450   Biso      1.000     C          -0.087796           
         C73       1.0000    0.43100   0.18170   0.24420   Biso      1.000     C          0.680806  
         C74       1.0000    0.45480   0.62350   0.45700   Biso      1.000     C          0.085116  
         C75       1.0000    0.08190   0.96630   0.21310   Biso      1.000     C          -0.063282           
         C76       1.0000    0.57960   0.73670   0.40930   Biso      1.000     C          0.646279  
         C77       1.0000    0.08800   0.11030   0.17610   Biso      1.000     C          0.693756  
         C78       1.0000    0.15900   0.02520   0.18470   Biso      1.000     C          -0.089144           
         C79       1.0000    0.58200   0.73360   0.58820   Biso      1.000     C          0.659991  
         C80       1.0000    0.58210   0.73390   0.49830   Biso      1.000     C          -0.059098           
         C81       1.0000    0.30390   0.00340   0.16670   Biso      1.000     C          0.062861  
         C82       1.0000    0.54330   0.69490   0.54210   Biso      1.000     C          -0.083222           
         C83       1.0000    0.41600   0.90360   0.32480   Biso      1.000     C          0.68191   
         C84       1.0000    0.19740   0.00780   0.33270   Biso      1.000     C          0.067381  
         H1        1.0000    0.57560   0.09180   0.93210   Biso      1.000     H          0.093002  
         H2        1.0000    0.01720   0.47980   0.27330   Biso      1.000     H          0.126867  
         H3        1.0000    0.42750   0.59910   0.42710   Biso      1.000     H          0.087237  
         H4        1.0000    0.52940   0.03710   0.27470   Biso      1.000     H          0.13237   
         H5        1.0000    0.66220   0.31870   0.29610   Biso      1.000     H          0.102891  
         H6        1.0000    0.98280   0.97980   0.22670   Biso      1.000     H          0.126867  
         H7        1.0000    0.64080   0.54320   0.35210   Biso      1.000     H          0.092932  
         H8        1.0000    0.14320   0.96750   0.35140   Biso      1.000     H          0.093466  
         H9        1.0000    0.57250   0.09910   0.07290   Biso      1.000     H          0.087239  
         H10       1.0000    0.85680   0.46750   0.14860   Biso      1.000     H          0.093466  
         H11       1.0000    0.35920   0.04320   0.14790   Biso      1.000     H          0.092933  
         H12       1.0000    0.64160   0.78410   0.49780   Biso      1.000     H          0.137387  
         H13       1.0000    0.35840   0.28410   0.00220   Biso      1.000     H          0.137387  
         H14       1.0000    0.33780   0.81870   0.20390   Biso      1.000     H          0.102891  
         H15       1.0000    0.47060   0.53710   0.22530   Biso      1.000     H          0.132368  
         H16       1.0000    0.97060   0.96290   0.77470   Biso      1.000     H          0.13237   
         H17       1.0000    0.48280   0.52020   0.77330   Biso      1.000     H          0.126867  
         H18       1.0000    0.07250   0.40090   0.92710   Biso      1.000     H          0.087237  
         H19       1.0000    0.83780   0.68130   0.79610   Biso      1.000     H          0.102891  
         H20       1.0000    0.85920   0.45680   0.85210   Biso      1.000     H          0.092933  
         H21       1.0000    0.16220   0.18130   0.70390   Biso      1.000     H          0.102891  
         H22       1.0000    0.92750   0.90090   0.57290   Biso      1.000     H          0.087237  
         H23       1.0000    0.85010   0.68430   0.21190   Biso      1.000     H          0.104989  
         H24       1.0000    0.51720   0.02020   0.72670   Biso      1.000     H          0.126867  
         H25       1.0000    0.14160   0.71590   0.50220   Biso      1.000     H          0.137388  
         H26       1.0000    0.64320   0.53250   0.64860   Biso      1.000     H          0.093466  
         H27       1.0000    0.35680   0.03250   0.85140   Biso      1.000     H          0.093466  
         H28       1.0000    0.14080   0.95680   0.64790   Biso      1.000     H          0.092933  
         H29       1.0000    0.85840   0.21590   0.99780   Biso      1.000     H          0.137388  
         H30       1.0000    0.14990   0.18430   0.28810   Biso      1.000     H          0.104989  
         H31       1.0000    0.42440   0.59180   0.56790   Biso      1.000     H          0.093002  
         H32       1.0000    0.07560   0.40820   0.06790   Biso      1.000     H          0.093002  
         H33       1.0000    0.35010   0.81570   0.78810   Biso      1.000     H          0.104989  
         H34       1.0000    0.64990   0.31570   0.71190   Biso      1.000     H          0.104989  
         H35       1.0000    0.92440   0.90820   0.43210   Biso      1.000     H          0.093002  
         H36       1.0000    0.02940   0.46290   0.72530   Biso      1.000     H          0.13237   
         N1        1.0000    0.62870   0.42010   0.67520   Biso      1.000     N          -0.264467           
         N2        1.0000    0.41480   0.58280   0.49710   Biso      1.000     N          -0.255413           
         N3        1.0000    0.37130   0.92810   0.17460   Biso      1.000     N          -0.271239           
         N4        1.0000    0.91480   0.91720   0.50290   Biso      1.000     N          -0.255413           
         N5        1.0000    0.12870   0.07990   0.32480   Biso      1.000     N          -0.264467           
         N6        1.0000    0.87130   0.57190   0.82540   Biso      1.000     N          -0.271239           
         N7        1.0000    0.12870   0.07190   0.67460   Biso      1.000     N          -0.271239           
         N8        1.0000    0.62870   0.42810   0.32540   Biso      1.000     N          -0.271239           
         N9        1.0000    0.58520   0.08280   0.00290   Biso      1.000     N          -0.255411           
         N10       1.0000    0.87130   0.57990   0.17520   Biso      1.000     N          -0.264468           
         N11       1.0000    0.08520   0.41720   0.99710   Biso      1.000     N          -0.255413           
         N12       1.0000    0.37130   0.92010   0.82480   Biso      1.000     N          -0.264467           
         O1        1.0000    0.94160   0.11880   0.18390   Biso      1.000     O          -0.724124           
         O2        1.0000    0.14650   0.76280   0.26480   Biso      1.000     O          -0.647197           
         O3        1.0000    0.97920   0.28780   0.87140   Biso      1.000     O          -0.736319           
         O4        1.0000    0.55840   0.88120   0.68390   Biso      1.000     O          -0.724124           
         O5        1.0000    0.35350   0.23720   0.76480   Biso      1.000     O          -0.647197           
         O6        1.0000    0.98480   0.29330   0.12710   Biso      1.000     O          -0.773685           
         O7        1.0000    0.32510   0.83620   0.66010   Biso      1.000     O          -0.645214           
         O8        1.0000    0.81580   0.21130   0.08970   Biso      1.000     O          -0.636124           
         O9        1.0000    0.34530   0.24710   0.23460   Biso      1.000     O          -0.710463           
         O10       1.0000    0.55720   0.89470   0.31580   Biso      1.000     O          -0.677876           
         O11       1.0000    0.52080   0.71220   0.37140   Biso      1.000     O          -0.736319           
         O12       1.0000    0.56050   0.16680   0.22920   Biso      1.000     O          -0.646129           
         O13       1.0000    0.81450   0.20710   0.91150   Biso      1.000     O          -0.659348           
         O14       1.0000    0.94010   0.84710   0.27170   Biso      1.000     O          -0.715219           
         O15       1.0000    0.68550   0.79290   0.41150   Biso      1.000     O          -0.659348           
         O16       1.0000    0.55990   0.15290   0.77170   Biso      1.000     O          -0.715219           
         O17       1.0000    0.32140   0.84410   0.33680   Biso      1.000     O          -0.703005           
         O18       1.0000    0.68420   0.78870   0.58970   Biso      1.000     O          -0.636125           
         O19       1.0000    0.93950   0.83320   0.72920   Biso      1.000     O          -0.646129           
         O20       1.0000    0.17490   0.16380   0.16010   Biso      1.000     O          -0.645214           
         O21       1.0000    0.94280   0.10530   0.81580   Biso      1.000     O          -0.677876           
         O22       1.0000    0.17860   0.15590   0.83680   Biso      1.000     O          -0.703005           
         O23       1.0000    0.47920   0.21220   0.12860   Biso      1.000     O          -0.736319           
         O24       1.0000    0.05720   0.60530   0.68420   Biso      1.000     O          -0.677876           
         O25       1.0000    0.51520   0.70670   0.62710   Biso      1.000     O          -0.773684           
         O26       1.0000    0.65470   0.74710   0.26540   Biso      1.000     O          -0.710463           
         O27       1.0000    0.44280   0.39470   0.18420   Biso      1.000     O          -0.677877           
         O28       1.0000    0.43950   0.66680   0.27080   Biso      1.000     O          -0.646129           
         O29       1.0000    0.05990   0.34710   0.22830   Biso      1.000     O          -0.715219           
         O30       1.0000    0.31450   0.29290   0.08850   Biso      1.000     O          -0.659348           
         O31       1.0000    0.67860   0.34410   0.16320   Biso      1.000     O          -0.703004           
         O32       1.0000    0.31580   0.28870   0.91030   Biso      1.000     O          -0.636125           
         O33       1.0000    0.82510   0.66380   0.33990   Biso      1.000     O          -0.645213           
         O34       1.0000    0.48480   0.20670   0.87290   Biso      1.000     O          -0.773684           
         O35       1.0000    0.85350   0.26280   0.23520   Biso      1.000     O          -0.647197           
         O36       1.0000    0.84530   0.25290   0.76540   Biso      1.000     O          -0.710463           
         O37       1.0000    0.05840   0.61880   0.31610   Biso      1.000     O          -0.724124           
         O38       1.0000    0.02080   0.78780   0.62860   Biso      1.000     O          -0.736319           
         O39       1.0000    0.44160   0.38120   0.81610   Biso      1.000     O          -0.724124           
         O40       1.0000    0.64650   0.73720   0.73520   Biso      1.000     O          -0.647197           
         O41       1.0000    0.01520   0.79330   0.37290   Biso      1.000     O          -0.773685           
         O42       1.0000    0.67490   0.33620   0.83990   Biso      1.000     O          -0.645214           
         O43       1.0000    0.18420   0.71130   0.41030   Biso      1.000     O          -0.636124           
         O44       1.0000    0.82140   0.65590   0.66320   Biso      1.000     O          -0.703005           
         O45       1.0000    0.18550   0.70710   0.58850   Biso      1.000     O          -0.659348           
         O46       1.0000    0.44010   0.65290   0.72830   Biso      1.000     O          -0.715219           
         O47       1.0000    0.06050   0.33320   0.77080   Biso      1.000     O          -0.646129           
         O48       1.0000    0.15470   0.75290   0.73460   Biso      1.000     O          -0.710463           
         Tb1       1.0000    0.73059   0.20398   0.16917   Biso      1.000     Tb          2.140285  
         Tb2       1.0000    0.22966   0.30614   0.16771   Biso      1.000     Tb          2.1318    
         Tb3       1.0000    0.72966   0.19386   0.83229   Biso      1.000     Tb          2.1318    
         Tb4       1.0000    0.26941   0.70398   0.33083   Biso      1.000     Tb          2.140285  
         Tb5       1.0000    0.23059   0.29602   0.83083   Biso      1.000     Tb          2.140285  
         Tb6       1.0000    0.27034   0.69386   0.66771   Biso      1.000     Tb          2.1318    
         Tb7       1.0000    0.76941   0.79602   0.66917   Biso      1.000     Tb          2.140285  
         Tb8       1.0000    0.77034   0.80614   0.33229   Biso      1.000     Tb          2.1318 