
##########################################################################
#               Crystallographic Information Format file
#               Produced by PyCifRW module
#
#  This is a CIF file.  CIF has been adopted by the International
#  Union of Crystallography as the standard for data archiving and
#  transmission.
#
#  For information on this file format, follow the CIF links at
#  http://www.iucr.org
##########################################################################

data_image0

_cell_length_a                          8.0234
_cell_length_b                          30.2439
_cell_length_c                          15.328
_cell_angle_alpha                       90
_cell_angle_beta                        90
_cell_angle_gamma                       90
_symmetry_space_group_name_H-M          'P 1'
_symmetry_int_tables_number             1
loop_
  _symmetry_equiv_pos_as_xyz
         'x, y, z' 
loop_
  _atom_site_label
  _atom_site_occupancy
  _atom_site_fract_x
  _atom_site_fract_y
  _atom_site_fract_z
  _atom_site_thermal_displace_type
  _atom_site_B_iso_or_equiv
  _atom_site_type_symbol
  _atom_site_charge
         C1        1.0000    0.33980   0.56078   0.97210   Biso      1.000     C          -0.079692           
         C2        1.0000    0.80410   0.52656   0.47020   Biso      1.000     C          -0.06287899999999999          
         C3        1.0000    0.74240   0.71206   0.90890   Biso      1.000     C          0.078972  
         C4        1.0000    0.25760   0.28794   0.09110   Biso      1.000     C          0.078972  
         C5        1.0000    0.90750   0.51942   0.39970   Biso      1.000     C          -0.082122           
         C6        1.0000    0.35180   0.28958   0.16720   Biso      1.000     C          -0.065962           
         C7        1.0000    0.09250   0.48058   0.60030   Biso      1.000     C          -0.082124           
         C8        1.0000    0.04150   0.54793   0.38770   Biso      1.000     C          0.08440700000000001           
         C9        1.0000    0.73390   0.56641   0.60730   Biso      1.000     C          0.6056739999999999  
         C10       1.0000    0.47580   0.58790   0.99040   Biso      1.000     C          0.06919600000000001           
         C11       1.0000    0.88090   0.47985   0.34160   Biso      1.000     C          0.669407  
         C12       1.0000    0.97580   0.58790   0.50960   Biso      1.000     C          0.06919600000000001           
         C13       1.0000    0.83980   0.56078   0.52790   Biso      1.000     C          -0.079691           
         C14       1.0000    0.40370   0.33219   0.20840   Biso      1.000     C          0.640305  
         C15       1.0000    0.38090   0.47985   0.15840   Biso      1.000     C          0.669407  
         C16       1.0000    0.23390   0.56641   0.89270   Biso      1.000     C          0.6056739999999999  
         C17       1.0000    0.54150   0.54793   0.11230   Biso      1.000     C          0.084406  
         C18       1.0000    0.09860   0.75000   0.70550   Biso      1.000     C          -0.060452           
         C19       1.0000    0.85180   0.28958   0.33280   Biso      1.000     C          -0.065962           
         C20       1.0000    0.64820   0.71042   0.83280   Biso      1.000     C          -0.065962           
         C21       1.0000    0.59630   0.66781   0.79160   Biso      1.000     C          0.640305  
         C22       1.0000    0.90370   0.33219   0.29160   Biso      1.000     C          0.640305  
         C23       1.0000    0.80410   0.97344   0.47020   Biso      1.000     C          -0.06287899999999999          
         C24       1.0000    0.40370   0.16781   0.20840   Biso      1.000     C          0.640305  
         C25       1.0000    0.83980   0.93922   0.52790   Biso      1.000     C          -0.079691           
         C26       1.0000    0.97580   0.91210   0.50960   Biso      1.000     C          0.06919600000000001           
         C27       1.0000    0.88090   0.02015   0.34160   Biso      1.000     C          0.669407  
         C28       1.0000    0.73390   0.93359   0.60730   Biso      1.000     C          0.6056739999999999  
         C29       1.0000    0.69590   0.47344   0.97020   Biso      1.000     C          -0.06287899999999999          
         C30       1.0000    0.04150   0.95207   0.38770   Biso      1.000     C          0.084405  
         C31       1.0000    0.24240   0.71206   0.59110   Biso      1.000     C          0.078972  
         C32       1.0000    0.59250   0.48058   0.89970   Biso      1.000     C          -0.082122           
         C33       1.0000    0.14820   0.71042   0.66720   Biso      1.000     C          -0.065962           
         C34       1.0000    0.45850   0.45207   0.88770   Biso      1.000     C          0.08440700000000001           
         C35       1.0000    0.76610   0.43359   0.10730   Biso      1.000     C          0.6056739999999999  
         C36       1.0000    0.61910   0.52015   0.84160   Biso      1.000     C          0.669407  
         C37       1.0000    0.35180   0.21042   0.16720   Biso      1.000     C          -0.065962           
         C38       1.0000    0.52420   0.41210   0.00960   Biso      1.000     C          0.06919600000000001           
         C39       1.0000    0.66020   0.43922   0.02790   Biso      1.000     C          -0.079691           
         C40       1.0000    0.09630   0.66781   0.70840   Biso      1.000     C          0.640305  
         C41       1.0000    0.90750   0.98058   0.39970   Biso      1.000     C          -0.08212  
         C42       1.0000    0.25760   0.21206   0.09110   Biso      1.000     C          0.078972  
         C43       1.0000    0.40750   0.51942   0.10030   Biso      1.000     C          -0.082123           
         C44       1.0000    0.75760   0.28794   0.40890   Biso      1.000     C          0.078972  
         C45       1.0000    0.95850   0.45207   0.61230   Biso      1.000     C          0.08440700000000001           
         C46       1.0000    0.30410   0.97344   0.02980   Biso      1.000     C          -0.06287899999999999          
         C47       1.0000    0.19590   0.02656   0.52980   Biso      1.000     C          -0.06287899999999999          
         C48       1.0000    0.24240   0.78794   0.59110   Biso      1.000     C          0.078972  
         C49       1.0000    0.74240   0.78794   0.90890   Biso      1.000     C          0.078972  
         C50       1.0000    0.09250   0.01942   0.60030   Biso      1.000     C          -0.082122           
         C51       1.0000    0.64820   0.78958   0.83280   Biso      1.000     C          -0.065962           
         C52       1.0000    0.95850   0.04793   0.61230   Biso      1.000     C          0.08440700000000001           
         C53       1.0000    0.26610   0.06641   0.39270   Biso      1.000     C          0.6056739999999999  
         C54       1.0000    0.11910   0.97985   0.65840   Biso      1.000     C          0.669407  
         C55       1.0000    0.69590   0.02656   0.97020   Biso      1.000     C          -0.06287899999999999          
         C56       1.0000    0.02420   0.08790   0.49040   Biso      1.000     C          0.06919600000000001           
         C57       1.0000    0.16020   0.06078   0.47210   Biso      1.000     C          -0.079691           
         C58       1.0000    0.59630   0.83219   0.79160   Biso      1.000     C          0.640305  
         C59       1.0000    0.90140   0.25000   0.29450   Biso      1.000     C          -0.060452           
         C60       1.0000    0.11910   0.52015   0.65840   Biso      1.000     C          0.669407  
         C61       1.0000    0.40140   0.25000   0.20550   Biso      1.000     C          -0.060452           
         C62       1.0000    0.02420   0.41210   0.49040   Biso      1.000     C          0.06919600000000001           
         C63       1.0000    0.16020   0.43922   0.47210   Biso      1.000     C          -0.079692           
         C64       1.0000    0.26610   0.43359   0.39270   Biso      1.000     C          0.6056739999999999  
         C65       1.0000    0.14820   0.78958   0.66720   Biso      1.000     C          -0.065962           
         C66       1.0000    0.59250   0.01942   0.89970   Biso      1.000     C          -0.082122           
         C67       1.0000    0.38090   0.02015   0.15840   Biso      1.000     C          0.669407  
         C68       1.0000    0.09630   0.83219   0.70840   Biso      1.000     C          0.640305  
         C69       1.0000    0.75760   0.21206   0.40890   Biso      1.000     C          0.078972  
         C70       1.0000    0.40750   0.98058   0.10030   Biso      1.000     C          -0.082122           
         C71       1.0000    0.85180   0.21042   0.33280   Biso      1.000     C          -0.065962           
         C72       1.0000    0.66020   0.06078   0.02790   Biso      1.000     C          -0.079691           
         C73       1.0000    0.54150   0.95207   0.11230   Biso      1.000     C          0.08440700000000001           
         C74       1.0000    0.23390   0.93359   0.89270   Biso      1.000     C          0.6056739999999999  
         C75       1.0000    0.52420   0.08790   0.00960   Biso      1.000     C          0.06919600000000001           
         C76       1.0000    0.47580   0.91210   0.99040   Biso      1.000     C          0.06919600000000001           
         C77       1.0000    0.33980   0.93922   0.97210   Biso      1.000     C          -0.079691           
         C78       1.0000    0.19590   0.47344   0.52980   Biso      1.000     C          -0.062876           
         C79       1.0000    0.90370   0.16781   0.29160   Biso      1.000     C          0.640305  
         C80       1.0000    0.59860   0.75000   0.79450   Biso      1.000     C          -0.060452           
         C81       1.0000    0.45850   0.04793   0.88770   Biso      1.000     C          0.08440700000000001           
         C82       1.0000    0.61910   0.97985   0.84160   Biso      1.000     C          0.669407  
         C83       1.0000    0.30410   0.52656   0.02980   Biso      1.000     C          -0.062876           
         C84       1.0000    0.76610   0.06641   0.10730   Biso      1.000     C          0.6056739999999999  
         H1        1.0000    0.38610   0.04270   0.83980   Biso      1.000     H          0.107873  
         H2        1.0000    0.99980   0.88850   0.54860   Biso      1.000     H          0.09943099999999999           
         H3        1.0000    0.00020   0.38850   0.45140   Biso      1.000     H          0.09943099999999999           
         H4        1.0000    0.22350   0.18500   0.06530   Biso      1.000     H          0.09511499999999999           
         H5        1.0000    0.79060   0.00830   0.97930   Biso      1.000     H          0.13696   
         H6        1.0000    0.88610   0.45730   0.66020   Biso      1.000     H          0.107873  
         H7        1.0000    0.11390   0.95730   0.33980   Biso      1.000     H          0.107873  
         H8        1.0000    0.77650   0.68500   0.93470   Biso      1.000     H          0.09511499999999999           
         H9        1.0000    0.50020   0.11150   0.04860   Biso      1.000     H          0.09943099999999999           
         H10       1.0000    0.27650   0.81500   0.56530   Biso      1.000     H          0.09511499999999999           
         H11       1.0000    0.70940   0.99170   0.47930   Biso      1.000     H          0.13696   
         H12       1.0000    0.03220   0.75000   0.75680   Biso      1.000     H          0.13555   
         H13       1.0000    0.29060   0.49170   0.52070   Biso      1.000     H          0.136959  
         H14       1.0000    0.46780   0.25000   0.25680   Biso      1.000     H          0.13555   
         H15       1.0000    0.96780   0.25000   0.24320   Biso      1.000     H          0.13555   
         H16       1.0000    0.00020   0.11150   0.45140   Biso      1.000     H          0.09943099999999999           
         H17       1.0000    0.88610   0.04270   0.66020   Biso      1.000     H          0.107873  
         H18       1.0000    0.77650   0.81500   0.93470   Biso      1.000     H          0.09511499999999999           
         H19       1.0000    0.29060   0.00830   0.52070   Biso      1.000     H          0.13696   
         H20       1.0000    0.53220   0.75000   0.74320   Biso      1.000     H          0.13555   
         H21       1.0000    0.20940   0.50830   0.02070   Biso      1.000     H          0.136959  
         H22       1.0000    0.72350   0.31500   0.43470   Biso      1.000     H          0.09511499999999999           
         H23       1.0000    0.49980   0.88850   0.95140   Biso      1.000     H          0.09943099999999999           
         H24       1.0000    0.61390   0.95730   0.16020   Biso      1.000     H          0.107873  
         H25       1.0000    0.72350   0.18500   0.43470   Biso      1.000     H          0.09511499999999999           
         H26       1.0000    0.61390   0.54270   0.16020   Biso      1.000     H          0.107873  
         H27       1.0000    0.99980   0.61150   0.54860   Biso      1.000     H          0.09943099999999999           
         H28       1.0000    0.11390   0.54270   0.33980   Biso      1.000     H          0.107873  
         H29       1.0000    0.20940   0.99170   0.02070   Biso      1.000     H          0.13696   
         H30       1.0000    0.70940   0.50830   0.47930   Biso      1.000     H          0.13696   
         H31       1.0000    0.79060   0.49170   0.97930   Biso      1.000     H          0.13696   
         H32       1.0000    0.27650   0.68500   0.56530   Biso      1.000     H          0.09511499999999999           
         H33       1.0000    0.22350   0.31500   0.06530   Biso      1.000     H          0.09511499999999999           
         H34       1.0000    0.50020   0.38850   0.04860   Biso      1.000     H          0.09943099999999999           
         H35       1.0000    0.38610   0.45730   0.83980   Biso      1.000     H          0.107873  
         H36       1.0000    0.49980   0.61150   0.95140   Biso      1.000     H          0.09943099999999999           
         N1        1.0000    0.07460   0.58242   0.43990   Biso      1.000     N          -0.272171           
         N2        1.0000    0.28750   0.75000   0.55220   Biso      1.000     N          -0.256429           
         N3        1.0000    0.21250   0.25000   0.05220   Biso      1.000     N          -0.256429           
         N4        1.0000    0.92540   0.08242   0.56010   Biso      1.000     N          -0.272171           
         N5        1.0000    0.57460   0.58242   0.06010   Biso      1.000     N          -0.272171           
         N6        1.0000    0.71250   0.25000   0.44780   Biso      1.000     N          -0.256429           
         N7        1.0000    0.92540   0.41758   0.56010   Biso      1.000     N          -0.272171           
         N8        1.0000    0.78750   0.75000   0.94780   Biso      1.000     N          -0.256429           
         N9        1.0000    0.42540   0.08242   0.93990   Biso      1.000     N          -0.272171           
         N10       1.0000    0.42540   0.41758   0.93990   Biso      1.000     N          -0.272171           
         N11       1.0000    0.57460   0.91758   0.06010   Biso      1.000     N          -0.272171           
         N12       1.0000    0.07460   0.91758   0.43990   Biso      1.000     N          -0.272171           
         O1        1.0000    0.01180   0.33050   0.23235   Biso      1.000     O          -0.6382260000000001           
         O2        1.0000    0.24570   0.45998   0.15063   Biso      1.000     O          -0.6692229999999999           
         O3        1.0000    0.10870   0.54198   0.88552   Biso      1.000     O          -0.583095           
         O4        1.0000    0.84270   0.36874   0.31759   Biso      1.000     O          -0.746001           
         O5        1.0000    0.26360   0.59708   0.83781   Biso      1.000     O          -0.7547159999999999           
         O6        1.0000    0.49870   0.46958   0.20828   Biso      1.000     O          -0.654201           
         O7        1.0000    0.76360   0.90292   0.66219   Biso      1.000     O          -0.7547159999999999           
         O8        1.0000    0.23640   0.40292   0.33781   Biso      1.000     O          -0.7547159999999999           
         O9        1.0000    0.15730   0.63126   0.68241   Biso      1.000     O          -0.746001           
         O10       1.0000    0.99870   0.46958   0.29172   Biso      1.000     O          -0.6542020000000001           
         O11       1.0000    0.76360   0.59708   0.66219   Biso      1.000     O          -0.7547159999999999           
         O12       1.0000    0.51180   0.33050   0.26765   Biso      1.000     O          -0.6382260000000001           
         O13       1.0000    0.74570   0.45998   0.34937   Biso      1.000     O          -0.6692229999999999           
         O14       1.0000    0.60870   0.54198   0.61448   Biso      1.000     O          -0.583095           
         O15       1.0000    0.34270   0.36874   0.18241   Biso      1.000     O          -0.746001           
         O16       1.0000    0.49870   0.03042   0.20828   Biso      1.000     O          -0.6542020000000001           
         O17       1.0000    0.26360   0.90292   0.83781   Biso      1.000     O          -0.7547159999999999           
         O18       1.0000    0.01180   0.16950   0.23235   Biso      1.000     O          -0.6382260000000001           
         O19       1.0000    0.24570   0.04002   0.15063   Biso      1.000     O          -0.6692229999999999           
         O20       1.0000    0.10870   0.95802   0.88552   Biso      1.000     O          -0.583095           
         O21       1.0000    0.84270   0.13126   0.31759   Biso      1.000     O          -0.746001           
         O22       1.0000    0.00130   0.96958   0.70828   Biso      1.000     O          -0.6542020000000001           
         O23       1.0000    0.23640   0.09708   0.33781   Biso      1.000     O          -0.7547159999999999           
         O24       1.0000    0.48820   0.83050   0.73235   Biso      1.000     O          -0.6382260000000001           
         O25       1.0000    0.25430   0.95998   0.65063   Biso      1.000     O          -0.6692229999999999           
         O26       1.0000    0.39130   0.04198   0.38552   Biso      1.000     O          -0.583095           
         O27       1.0000    0.65730   0.86874   0.81759   Biso      1.000     O          -0.746001           
         O28       1.0000    0.00130   0.53042   0.70828   Biso      1.000     O          -0.654201           
         O29       1.0000    0.75430   0.54002   0.84937   Biso      1.000     O          -0.6692229999999999           
         O30       1.0000    0.89130   0.45802   0.11448   Biso      1.000     O          -0.583095           
         O31       1.0000    0.73640   0.40292   0.16219   Biso      1.000     O          -0.7547159999999999           
         O32       1.0000    0.48820   0.66950   0.73235   Biso      1.000     O          -0.6382260000000001           
         O33       1.0000    0.25430   0.54002   0.65063   Biso      1.000     O          -0.6692229999999999           
         O34       1.0000    0.39130   0.45802   0.38552   Biso      1.000     O          -0.583095           
         O35       1.0000    0.65730   0.63126   0.81759   Biso      1.000     O          -0.746001           
         O36       1.0000    0.50130   0.96958   0.79172   Biso      1.000     O          -0.6542020000000001           
         O37       1.0000    0.73640   0.09708   0.16219   Biso      1.000     O          -0.7547159999999999           
         O38       1.0000    0.98820   0.83050   0.76765   Biso      1.000     O          -0.6382260000000001           
         O39       1.0000    0.75430   0.95998   0.84937   Biso      1.000     O          -0.6692229999999999           
         O40       1.0000    0.89130   0.04198   0.11448   Biso      1.000     O          -0.583095           
         O41       1.0000    0.98820   0.66950   0.76765   Biso      1.000     O          -0.6382260000000001           
         O42       1.0000    0.15730   0.86874   0.68241   Biso      1.000     O          -0.746001           
         O43       1.0000    0.99870   0.03042   0.29172   Biso      1.000     O          -0.6542020000000001           
         O44       1.0000    0.51180   0.16950   0.26765   Biso      1.000     O          -0.6382260000000001           
         O45       1.0000    0.74570   0.04002   0.34937   Biso      1.000     O          -0.6692229999999999           
         O46       1.0000    0.60870   0.95802   0.61448   Biso      1.000     O          -0.583095           
         O47       1.0000    0.34270   0.13126   0.18241   Biso      1.000     O          -0.746001           
         O48       1.0000    0.50130   0.53042   0.79172   Biso      1.000     O          -0.6542020000000001           
         Sm1       1.0000    0.56392   0.40701   0.29570   Biso      1.000     Sm          2.111613  
         Sm2       1.0000    0.06392   0.40701   0.20430   Biso      1.000     Sm          2.111613  
         Sm3       1.0000    0.06392   0.09299   0.20430   Biso      1.000     Sm          2.111613  
         Sm4       1.0000    0.43608   0.59299   0.70430   Biso      1.000     Sm          2.111613  
         Sm5       1.0000    0.93608   0.59299   0.79570   Biso      1.000     Sm          2.111613  
         Sm6       1.0000    0.56392   0.09299   0.29570   Biso      1.000     Sm          2.111613  
         Sm7       1.0000    0.93608   0.90701   0.79570   Biso      1.000     Sm          2.111613  
         Sm8       1.0000    0.43608   0.90701   0.70430   Biso      1.000     Sm          2.111613 