
##########################################################################
#               Crystallographic Information Format file
#               Produced by PyCifRW module
#
#  This is a CIF file.  CIF has been adopted by the International
#  Union of Crystallography as the standard for data archiving and
#  transmission.
#
#  For information on this file format, follow the CIF links at
#  http://www.iucr.org
##########################################################################

data_image0

_cell_length_a                          10.5454
_cell_length_b                          17.5986
_cell_length_c                          19.9964
_cell_angle_alpha                       90
_cell_angle_beta                        90
_cell_angle_gamma                       91.283
_symmetry_space_group_name_H-M          'P 1'
_symmetry_int_tables_number             1
loop_
  _symmetry_equiv_pos_as_xyz
         'x, y, z' 
loop_
  _atom_site_label
  _atom_site_occupancy
  _atom_site_fract_x
  _atom_site_fract_y
  _atom_site_fract_z
  _atom_site_thermal_displace_type
  _atom_site_B_iso_or_equiv
  _atom_site_type_symbol
  _atom_site_charge
         C1        1.0000    0.84100   0.23120   0.85240   Biso      1.000     C          -0.086423           
         C2        1.0000    0.46960   0.69470   0.92640   Biso      1.000     C          -0.029968           
         C3        1.0000    0.57650   0.72290   0.89120   Biso      1.000     C          -0.092675           
         C4        1.0000    0.56790   0.78200   0.85050   Biso      1.000     C          -0.070265           
         C5        1.0000    0.45480   0.81990   0.84460   Biso      1.000     C          -0.022586000000000002         
         C6        1.0000    0.44130   0.88540   0.79840   Biso      1.000     C          0.70192   
         C7        1.0000    0.41600   0.11300   0.70370   Biso      1.000     C          0.697412  
         C8        1.0000    0.58340   0.27940   0.61900   Biso      1.000     C          -0.086573           
         C9        1.0000    0.56380   0.21400   0.65510   Biso      1.000     C          -0.109847           
         C10       1.0000    0.44000   0.18980   0.66850   Biso      1.000     C          -0.033658999999999994         
         C11       1.0000    0.35800   0.29970   0.61300   Biso      1.000     C          -0.106227           
         C12       1.0000    0.35820   0.73330   0.92200   Biso      1.000     C          -0.077886           
         C13       1.0000    0.48100   0.32210   0.59700   Biso      1.000     C          -0.034348000000000004         
         C14       1.0000    0.98090   0.62320   0.53250   Biso      1.000     C          0.706354  
         C15       1.0000    0.85050   0.79550   0.61840   Biso      1.000     C          -0.08408099999999999          
         C16       1.0000    0.85820   0.73330   0.57800   Biso      1.000     C          -0.077885           
         C17       1.0000    0.96960   0.69470   0.57360   Biso      1.000     C          -0.029967           
         C18       1.0000    0.07650   0.72290   0.60880   Biso      1.000     C          -0.092675           
         C19       1.0000    0.06790   0.78200   0.64950   Biso      1.000     C          -0.070265           
         C20       1.0000    0.95480   0.81990   0.65540   Biso      1.000     C          -0.022585           
         C21       1.0000    0.94130   0.88540   0.70160   Biso      1.000     C          0.70192   
         C22       1.0000    0.08400   0.88700   0.20370   Biso      1.000     C          0.697412  
         C23       1.0000    0.91660   0.72060   0.11900   Biso      1.000     C          -0.086573           
         C24       1.0000    0.50290   0.39420   0.55440   Biso      1.000     C          0.717492  
         C25       1.0000    0.93620   0.78600   0.15510   Biso      1.000     C          -0.109847           
         C26       1.0000    0.35050   0.79550   0.88160   Biso      1.000     C          -0.084079           
         C27       1.0000    0.00290   0.39420   0.94560   Biso      1.000     C          0.717493  
         C28       1.0000    0.58400   0.88700   0.29630   Biso      1.000     C          0.697412  
         C29       1.0000    0.41660   0.72060   0.38100   Biso      1.000     C          -0.086573           
         C30       1.0000    0.43620   0.78600   0.34490   Biso      1.000     C          -0.109847           
         C31       1.0000    0.56000   0.81020   0.33150   Biso      1.000     C          -0.033658999999999994         
         C32       1.0000    0.65900   0.76880   0.35240   Biso      1.000     C          -0.08640700000000001          
         C33       1.0000    0.64200   0.70030   0.38700   Biso      1.000     C          -0.106227           
         C34       1.0000    0.51900   0.67790   0.40300   Biso      1.000     C          -0.034348000000000004         
         C35       1.0000    0.49710   0.60580   0.44560   Biso      1.000     C          0.717492  
         C36       1.0000    0.01910   0.37680   0.46750   Biso      1.000     C          0.706354  
         C37       1.0000    0.14950   0.20450   0.38160   Biso      1.000     C          -0.08408099999999999          
         C38       1.0000    0.48090   0.62320   0.96750   Biso      1.000     C          0.706354  
         C39       1.0000    0.14180   0.26670   0.42200   Biso      1.000     C          -0.077885           
         C40       1.0000    0.92350   0.27710   0.39120   Biso      1.000     C          -0.092675           
         C41       1.0000    0.93210   0.21800   0.35050   Biso      1.000     C          -0.070265           
         C42       1.0000    0.04520   0.18010   0.34460   Biso      1.000     C          -0.022586000000000002         
         C43       1.0000    0.05870   0.11460   0.29840   Biso      1.000     C          0.701921  
         C44       1.0000    0.91600   0.11300   0.79630   Biso      1.000     C          0.697411  
         C45       1.0000    0.08340   0.27940   0.88100   Biso      1.000     C          -0.086573           
         C46       1.0000    0.06380   0.21400   0.84490   Biso      1.000     C          -0.109849           
         C47       1.0000    0.94000   0.18980   0.83150   Biso      1.000     C          -0.033642           
         C48       1.0000    0.85800   0.29970   0.88700   Biso      1.000     C          -0.106224           
         C49       1.0000    0.98100   0.32210   0.90300   Biso      1.000     C          -0.034349           
         C50       1.0000    0.03040   0.30530   0.42640   Biso      1.000     C          -0.029967           
         C51       1.0000    0.06000   0.81020   0.16850   Biso      1.000     C          -0.033658999999999994         
         C52       1.0000    0.34100   0.23120   0.64760   Biso      1.000     C          -0.08640700000000001          
         C53       1.0000    0.14200   0.70030   0.11300   Biso      1.000     C          -0.106227           
         C54       1.0000    0.15900   0.76880   0.14760   Biso      1.000     C          -0.08640700000000001          
         C55       1.0000    0.55870   0.11460   0.20160   Biso      1.000     C          0.70192   
         C56       1.0000    0.54520   0.18010   0.15540   Biso      1.000     C          -0.022586000000000002         
         C57       1.0000    0.42350   0.27710   0.10880   Biso      1.000     C          -0.092675           
         C58       1.0000    0.53040   0.30530   0.07360   Biso      1.000     C          -0.029968           
         C59       1.0000    0.43210   0.21800   0.14950   Biso      1.000     C          -0.070265           
         C60       1.0000    0.64950   0.20450   0.11840   Biso      1.000     C          -0.08408099999999999          
         C61       1.0000    0.51910   0.37680   0.03250   Biso      1.000     C          0.706354  
         C62       1.0000    0.99710   0.60580   0.05440   Biso      1.000     C          0.717493  
         C63       1.0000    0.01900   0.67790   0.09700   Biso      1.000     C          -0.034348000000000004         
         C64       1.0000    0.64180   0.26670   0.07800   Biso      1.000     C          -0.07788400000000001          
         H1        1.0000    0.15580   0.69900   0.60330   Biso      1.000     H          0.109601  
         H2        1.0000    0.25680   0.21320   0.65670   Biso      1.000     H          0.122902  
         H3        1.0000    0.28820   0.32970   0.60090   Biso      1.000     H          0.11333199999999999           
         H4        1.0000    0.77360   0.82230   0.62100   Biso      1.000     H          0.11653599999999999           
         H5        1.0000    0.78630   0.71660   0.55300   Biso      1.000     H          0.123155  
         H6        1.0000    0.13980   0.79860   0.67470   Biso      1.000     H          0.126078  
         H7        1.0000    0.71370   0.28340   0.05300   Biso      1.000     H          0.123155  
         H8        1.0000    0.86640   0.81440   0.17060   Biso      1.000     H          0.102628  
         H9        1.0000    0.24320   0.78680   0.15670   Biso      1.000     H          0.122902  
         H10       1.0000    0.21180   0.67030   0.10090   Biso      1.000     H          0.11333199999999999           
         H11       1.0000    0.63360   0.18560   0.67060   Biso      1.000     H          0.102628  
         H12       1.0000    0.34420   0.30100   0.10330   Biso      1.000     H          0.109601  
         H13       1.0000    0.36020   0.20140   0.17470   Biso      1.000     H          0.126078  
         H14       1.0000    0.83240   0.70400   0.10880   Biso      1.000     H          0.12595599999999998           
         H15       1.0000    0.66760   0.29600   0.60880   Biso      1.000     H          0.12595599999999998           
         H16       1.0000    0.72640   0.17770   0.12100   Biso      1.000     H          0.11653599999999999           
         H17       1.0000    0.65580   0.69900   0.89670   Biso      1.000     H          0.109601  
         H18       1.0000    0.63980   0.79860   0.82530   Biso      1.000     H          0.126078  
         H19       1.0000    0.33240   0.70400   0.39120   Biso      1.000     H          0.12595599999999998           
         H20       1.0000    0.36640   0.81440   0.32940   Biso      1.000     H          0.102628  
         H21       1.0000    0.74320   0.78680   0.34330   Biso      1.000     H          0.122902  
         H22       1.0000    0.71180   0.67030   0.39910   Biso      1.000     H          0.11333199999999999           
         H23       1.0000    0.21370   0.28340   0.44700   Biso      1.000     H          0.123155  
         H24       1.0000    0.84420   0.30100   0.39670   Biso      1.000     H          0.109601  
         H25       1.0000    0.22640   0.17770   0.37900   Biso      1.000     H          0.11653599999999999           
         H26       1.0000    0.16760   0.29600   0.89120   Biso      1.000     H          0.12595599999999998           
         H27       1.0000    0.13360   0.18560   0.82940   Biso      1.000     H          0.102628  
         H28       1.0000    0.75680   0.21320   0.84330   Biso      1.000     H          0.122903  
         H29       1.0000    0.78820   0.32970   0.89910   Biso      1.000     H          0.11333199999999999           
         H30       1.0000    0.27360   0.82230   0.87900   Biso      1.000     H          0.11653599999999999           
         H31       1.0000    0.28630   0.71660   0.94700   Biso      1.000     H          0.123155  
         H32       1.0000    0.86020   0.20140   0.32530   Biso      1.000     H          0.126078  
         N1        1.0000    0.26100   0.52280   0.87760   Biso      1.000     N          0.76576   
         N2        1.0000    0.81000   0.02310   0.37820   Biso      1.000     N          0.7618149999999999  
         N3        1.0000    0.76100   0.52280   0.62240   Biso      1.000     N          0.76576   
         N4        1.0000    0.73900   0.47720   0.12240   Biso      1.000     N          0.76576   
         N5        1.0000    0.69000   0.97690   0.87820   Biso      1.000     N          0.7618149999999999  
         N6        1.0000    0.19000   0.97690   0.62180   Biso      1.000     N          0.7618149999999999  
         N7        1.0000    0.31000   0.02310   0.12180   Biso      1.000     N          0.7618149999999999  
         N8        1.0000    0.23900   0.47720   0.37760   Biso      1.000     N          0.76576   
         O1        1.0000    0.38560   0.59560   0.46710   Biso      1.000     O          -0.6941109999999999           
         O2        1.0000    0.41380   0.43710   0.54740   Biso      1.000     O          -0.707037           
         O3        1.0000    0.51200   0.07960   0.72500   Biso      1.000     O          -0.737513           
         O4        1.0000    0.30520   0.09150   0.71150   Biso      1.000     O          -0.662565           
         O5        1.0000    0.60600   0.01520   0.85420   Biso      1.000     O          -0.501037           
         O6        1.0000    0.75890   0.94070   0.83740   Biso      1.000     O          -0.5550069999999999           
         O7        1.0000    0.70470   0.97020   0.93980   Biso      1.000     O          -0.42012200000000005          
         O8        1.0000    0.53190   0.90200   0.75750   Biso      1.000     O          -0.7008840000000001           
         O9        1.0000    0.33750   0.92200   0.79720   Biso      1.000     O          -0.727662           
         O10       1.0000    0.58550   0.59060   0.97100   Biso      1.000     O          -0.727072           
         O11       1.0000    0.38190   0.59950   0.99850   Biso      1.000     O          -0.707335           
         O12       1.0000    0.66450   0.52190   0.09990   Biso      1.000     O          -0.5082300000000001           
         O13       1.0000    0.82110   0.44770   0.08720   Biso      1.000     O          -0.5212720000000001           
         O14       1.0000    0.73200   0.45730   0.18330   Biso      1.000     O          -0.45109399999999994          
         O15       1.0000    0.58620   0.56290   0.45260   Biso      1.000     O          -0.707037           
         O16       1.0000    0.11440   0.40440   0.96710   Biso      1.000     O          -0.6941109999999999           
         O17       1.0000    0.01200   0.07960   0.77500   Biso      1.000     O          -0.737513           
         O18       1.0000    0.80520   0.09150   0.78850   Biso      1.000     O          -0.662565           
         O19       1.0000    0.89400   0.98480   0.35420   Biso      1.000     O          -0.501037           
         O20       1.0000    0.74110   0.05930   0.33740   Biso      1.000     O          -0.5550069999999999           
         O21       1.0000    0.79530   0.02980   0.43980   Biso      1.000     O          -0.42012200000000005          
         O22       1.0000    0.96810   0.09800   0.25750   Biso      1.000     O          -0.7008840000000001           
         O23       1.0000    0.16250   0.07800   0.29720   Biso      1.000     O          -0.727662           
         O24       1.0000    0.61440   0.40440   0.53290   Biso      1.000     O          -0.6941109999999999           
         O25       1.0000    0.91450   0.40940   0.47100   Biso      1.000     O          -0.727072           
         O26       1.0000    0.11810   0.40050   0.49850   Biso      1.000     O          -0.707335           
         O27       1.0000    0.83550   0.47810   0.59990   Biso      1.000     O          -0.5082300000000001           
         O28       1.0000    0.67890   0.55230   0.58720   Biso      1.000     O          -0.5212720000000001           
         O29       1.0000    0.76800   0.54270   0.68330   Biso      1.000     O          -0.45109399999999994          
         O30       1.0000    0.91380   0.43710   0.95260   Biso      1.000     O          -0.707037           
         O31       1.0000    0.23200   0.45730   0.31670   Biso      1.000     O          -0.45109399999999994          
         O32       1.0000    0.69480   0.90850   0.28850   Biso      1.000     O          -0.662565           
         O33       1.0000    0.16450   0.52190   0.40010   Biso      1.000     O          -0.5082300000000001           
         O34       1.0000    0.48800   0.92040   0.27500   Biso      1.000     O          -0.737513           
         O35       1.0000    0.39400   0.98480   0.14580   Biso      1.000     O          -0.501037           
         O36       1.0000    0.24110   0.05930   0.16260   Biso      1.000     O          -0.5550069999999999           
         O37       1.0000    0.29530   0.02980   0.06020   Biso      1.000     O          -0.42012200000000005          
         O38       1.0000    0.46810   0.09800   0.24250   Biso      1.000     O          -0.7008840000000001           
         O39       1.0000    0.66250   0.07800   0.20280   Biso      1.000     O          -0.727662           
         O40       1.0000    0.41450   0.40940   0.02900   Biso      1.000     O          -0.727072           
         O41       1.0000    0.32110   0.44770   0.41280   Biso      1.000     O          -0.5212720000000001           
         O42       1.0000    0.33550   0.47810   0.90010   Biso      1.000     O          -0.5082300000000001           
         O43       1.0000    0.17890   0.55230   0.91280   Biso      1.000     O          -0.5212720000000001           
         O44       1.0000    0.26800   0.54270   0.81670   Biso      1.000     O          -0.45109399999999994          
         O45       1.0000    0.61810   0.40050   0.00150   Biso      1.000     O          -0.707335           
         O46       1.0000    0.08620   0.56290   0.04740   Biso      1.000     O          -0.707037           
         O47       1.0000    0.88560   0.59560   0.03290   Biso      1.000     O          -0.6941109999999999           
         O48       1.0000    0.08550   0.59060   0.52900   Biso      1.000     O          -0.727072           
         O49       1.0000    0.83750   0.92200   0.70280   Biso      1.000     O          -0.727662           
         O50       1.0000    0.03190   0.90200   0.74250   Biso      1.000     O          -0.7008840000000001           
         O51       1.0000    0.88190   0.59950   0.50150   Biso      1.000     O          -0.707335           
         O52       1.0000    0.25890   0.94070   0.66260   Biso      1.000     O          -0.5550069999999999           
         O53       1.0000    0.10600   0.01520   0.64580   Biso      1.000     O          -0.501037           
         O54       1.0000    0.19480   0.90850   0.21150   Biso      1.000     O          -0.662565           
         O55       1.0000    0.98800   0.92040   0.22500   Biso      1.000     O          -0.737513           
         O56       1.0000    0.20470   0.97020   0.56020   Biso      1.000     O          -0.42012200000000005          
         Tb1       1.0000    0.75344   0.49220   0.48164   Biso      1.000     Tb          2.081525  
         Tb2       1.0000    0.82093   0.99996   0.23470   Biso      1.000     Tb          2.082993  
         Tb3       1.0000    0.74656   0.50780   0.98164   Biso      1.000     Tb          2.081525  
         Tb4       1.0000    0.67907   0.00004   0.73470   Biso      1.000     Tb          2.082993  
         Tb5       1.0000    0.24656   0.50780   0.51836   Biso      1.000     Tb          2.081525  
         Tb6       1.0000    0.17907   0.00004   0.76530   Biso      1.000     Tb          2.082993  
         Tb7       1.0000    0.25344   0.49220   0.01836   Biso      1.000     Tb          2.081525  
         Tb8       1.0000    0.32093   0.99996   0.26530   Biso      1.000     Tb          2.082993 