
##########################################################################
#               Crystallographic Information Format file
#               Produced by PyCifRW module
#
#  This is a CIF file.  CIF has been adopted by the International
#  Union of Crystallography as the standard for data archiving and
#  transmission.
#
#  For information on this file format, follow the CIF links at
#  http://www.iucr.org
##########################################################################

data_image0

_cell_length_a                          13.762
_cell_length_b                          9.563
_cell_length_c                          9.883
_cell_angle_alpha                       90
_cell_angle_beta                        101.074
_cell_angle_gamma                       90
_symmetry_space_group_name_H-M          'P 1'
_symmetry_int_tables_number             1
loop_
  _symmetry_equiv_pos_as_xyz
         'x, y, z' 
loop_
  _atom_site_label
  _atom_site_occupancy
  _atom_site_fract_x
  _atom_site_fract_y
  _atom_site_fract_z
  _atom_site_thermal_displace_type
  _atom_site_B_iso_or_equiv
  _atom_site_type_symbol
  _atom_site_charge
         C1        1.0000    0.93560   0.30790   0.27560   Biso      1.000     C          0.6178859999999999  
         C2        1.0000    0.96620   0.40480   0.39510   Biso      1.000     C          -0.035742           
         C3        1.0000    0.10150   0.53250   0.53470   Biso      1.000     C          -0.024787           
         C4        1.0000    0.40310   0.73330   0.86190   Biso      1.000     C          0.17285899999999998           
         C5        1.0000    0.50570   0.81640   0.75130   Biso      1.000     C          0.15331   
         C6        1.0000    0.06630   0.06310   0.93080   Biso      1.000     C          -0.117684           
         C7        1.0000    0.20880   0.92610   0.05290   Biso      1.000     C          0.6230859999999999  
         C8        1.0000    0.96620   0.09520   0.89510   Biso      1.000     C          -0.035742           
         C9        1.0000    0.10150   0.96750   0.03470   Biso      1.000     C          -0.024786000000000002         
         C10       1.0000    0.40310   0.76670   0.36190   Biso      1.000     C          0.17285899999999998           
         C11       1.0000    0.50570   0.68360   0.25130   Biso      1.000     C          0.153309  
         C12       1.0000    0.93560   0.19210   0.77560   Biso      1.000     C          0.6178859999999999  
         C13       1.0000    0.93370   0.56310   0.56920   Biso      1.000     C          -0.117684           
         C14       1.0000    0.79120   0.42610   0.44710   Biso      1.000     C          0.6230859999999999  
         C15       1.0000    0.03380   0.59520   0.60490   Biso      1.000     C          -0.035742           
         C16       1.0000    0.89850   0.46750   0.46530   Biso      1.000     C          -0.024786000000000002         
         C17       1.0000    0.59690   0.26670   0.13810   Biso      1.000     C          0.17285899999999998           
         C18       1.0000    0.49430   0.18360   0.24870   Biso      1.000     C          0.15331   
         C19       1.0000    0.20880   0.57390   0.55290   Biso      1.000     C          0.6230859999999999  
         C20       1.0000    0.06630   0.43690   0.43080   Biso      1.000     C          -0.117683           
         C21       1.0000    0.06440   0.69210   0.72440   Biso      1.000     C          0.6178859999999999  
         C22       1.0000    0.89850   0.03250   0.96530   Biso      1.000     C          -0.024787           
         C23       1.0000    0.03380   0.90480   0.10490   Biso      1.000     C          -0.035742           
         C24       1.0000    0.06440   0.80790   0.22440   Biso      1.000     C          0.6178859999999999  
         C25       1.0000    0.49430   0.31640   0.74870   Biso      1.000     C          0.15331   
         C26       1.0000    0.79120   0.07390   0.94710   Biso      1.000     C          0.6230859999999999  
         C27       1.0000    0.59690   0.23330   0.63810   Biso      1.000     C          0.17285899999999998           
         C28       1.0000    0.93370   0.93690   0.06920   Biso      1.000     C          -0.117683           
         H1        1.0000    0.11070   0.10650   0.88430   Biso      1.000     H          0.12427   
         H2        1.0000    0.83080   0.22790   0.64700   Biso      1.000     H          0.41008   
         H3        1.0000    0.88930   0.60650   0.61570   Biso      1.000     H          0.12427   
         H4        1.0000    0.16920   0.72790   0.85300   Biso      1.000     H          0.41008   
         H5        1.0000    0.45520   0.17070   0.31480   Biso      1.000     H          0.112195  
         H6        1.0000    0.54480   0.82930   0.68520   Biso      1.000     H          0.112195  
         H7        1.0000    0.64410   0.17610   0.61050   Biso      1.000     H          0.122476  
         H8        1.0000    0.35590   0.82390   0.38950   Biso      1.000     H          0.122476  
         H9        1.0000    0.83080   0.27210   0.14700   Biso      1.000     H          0.41008   
         H10       1.0000    0.45520   0.32930   0.81480   Biso      1.000     H          0.112195  
         H11       1.0000    0.54480   0.67070   0.18520   Biso      1.000     H          0.112195  
         H12       1.0000    0.11070   0.39350   0.38430   Biso      1.000     H          0.124269  
         H13       1.0000    0.64410   0.32390   0.11050   Biso      1.000     H          0.122476  
         H14       1.0000    0.88930   0.89350   0.11570   Biso      1.000     H          0.12427   
         H15       1.0000    0.35590   0.67610   0.88950   Biso      1.000     H          0.122476  
         H16       1.0000    0.16920   0.77210   0.35300   Biso      1.000     H          0.41008   
         N1        1.0000    0.49243   0.39940   0.64340   Biso      1.000     N          -0.178196           
         N2        1.0000    0.49243   0.10060   0.14340   Biso      1.000     N          -0.178196           
         N3        1.0000    0.44139   0.71030   0.74860   Biso      1.000     N          -0.294685           
         N4        1.0000    0.55982   0.15370   0.07050   Biso      1.000     N          -0.186646           
         N5        1.0000    0.55982   0.34630   0.57050   Biso      1.000     N          -0.186647           
         N6        1.0000    0.44018   0.65370   0.42950   Biso      1.000     N          -0.18665299999999999          
         N7        1.0000    0.55861   0.28970   0.25140   Biso      1.000     N          -0.294685           
         N8        1.0000    0.44139   0.78970   0.24860   Biso      1.000     N          -0.294684           
         N9        1.0000    0.50757   0.89940   0.85660   Biso      1.000     N          -0.178196           
         N10       1.0000    0.44018   0.84630   0.92950   Biso      1.000     N          -0.186646           
         N11       1.0000    0.55861   0.21030   0.75140   Biso      1.000     N          -0.294684           
         N12       1.0000    0.50757   0.60060   0.35660   Biso      1.000     N          -0.17819000000000002          
         O1        1.0000    0.77134   0.19380   0.98370   Biso      1.000     O          -0.5994649999999999           
         O2        1.0000    0.00880   0.77470   0.76110   Biso      1.000     O          -0.49274799999999996          
         O3        1.0000    0.72691   0.98640   0.90170   Biso      1.000     O          -0.534786           
         O4        1.0000    0.15600   0.67260   0.78860   Biso      1.000     O          -0.543484           
         O5        1.0000    0.27309   0.48640   0.59830   Biso      1.000     O          -0.534787           
         O6        1.0000    0.72691   0.51360   0.40170   Biso      1.000     O          -0.534787           
         O7        1.0000    0.99120   0.27470   0.73890   Biso      1.000     O          -0.49274799999999996          
         O8        1.0000    0.84400   0.17260   0.71140   Biso      1.000     O          -0.543484           
         O9        1.0000    0.15600   0.82740   0.28860   Biso      1.000     O          -0.543484           
         O10       1.0000    0.00880   0.72530   0.26110   Biso      1.000     O          -0.49274799999999996          
         O11       1.0000    0.22866   0.80620   0.01630   Biso      1.000     O          -0.5994649999999999           
         O12       1.0000    0.27309   0.01360   0.09830   Biso      1.000     O          -0.534787           
         O13       1.0000    0.99120   0.22530   0.23890   Biso      1.000     O          -0.49274799999999996          
         O14       1.0000    0.84400   0.32740   0.21140   Biso      1.000     O          -0.543484           
         O15       1.0000    0.22866   0.69380   0.51630   Biso      1.000     O          -0.5994649999999999           
         O16       1.0000    0.77134   0.30620   0.48370   Biso      1.000     O          -0.5994649999999999           
         Zn1       1.0000    0.59568   0.43176   0.40085   Biso      1.000     Zn          0.6720619999999999  
         Zn2       1.0000    0.40432   0.93176   0.09915   Biso      1.000     Zn          0.6720619999999999  
         Zn3       1.0000    0.40432   0.56824   0.59915   Biso      1.000     Zn          0.672064  
         Zn4       1.0000    0.59568   0.06824   0.90085   Biso      1.000     Zn          0.6720619999999999 