
##########################################################################
#               Crystallographic Information Format file
#               Produced by PyCifRW module
#
#  This is a CIF file.  CIF has been adopted by the International
#  Union of Crystallography as the standard for data archiving and
#  transmission.
#
#  For information on this file format, follow the CIF links at
#  http://www.iucr.org
##########################################################################

data_image0

_cell_length_a                          8.579
_cell_length_b                          10.184
_cell_length_c                          11.107
_cell_angle_alpha                       64.78
_cell_angle_beta                        71.73
_cell_angle_gamma                       79.3
_symmetry_space_group_name_H-M          'P 1'
_symmetry_int_tables_number             1
loop_
  _symmetry_equiv_pos_as_xyz
         'x, y, z' 
loop_
  _atom_site_label
  _atom_site_occupancy
  _atom_site_fract_x
  _atom_site_fract_y
  _atom_site_fract_z
  _atom_site_thermal_displace_type
  _atom_site_B_iso_or_equiv
  _atom_site_type_symbol
  _atom_site_charge
         C1        1.0000    0.82400   0.95840   0.33330   Biso      1.000     C          0.599072  
         C2        1.0000    0.36820   0.93040   0.50950   Biso      1.000     C          -0.11077999999999999          
         C3        1.0000    0.47520   0.08780   0.57160   Biso      1.000     C          -0.115336           
         C4        1.0000    0.34400   0.01930   0.58110   Biso      1.000     C          -0.007157999999999999         
         C5        1.0000    0.93530   0.26170   0.94960   Biso      1.000     C          0.64056   
         C6        1.0000    0.00760   0.51710   0.86750   Biso      1.000     C          -0.091664           
         C7        1.0000    0.96090   0.36720   0.10990   Biso      1.000     C          -0.11719500000000001          
         C8        1.0000    0.96850   0.38430   0.97800   Biso      1.000     C          -0.020807           
         C9        1.0000    0.67500   0.26810   0.68060   Biso      1.000     C          0.601955  
         C10       1.0000    0.41890   0.42750   0.63720   Biso      1.000     C          -0.09449500000000001          
         C11       1.0000    0.66330   0.46290   0.45130   Biso      1.000     C          -0.09793400000000001          
         C12       1.0000    0.58320   0.38870   0.58860   Biso      1.000     C          -0.0068590000000000005        
         C13       1.0000    0.63180   0.06960   0.49050   Biso      1.000     C          -0.11078299999999999          
         C14       1.0000    0.52480   0.91220   0.42840   Biso      1.000     C          -0.115337           
         C15       1.0000    0.65600   0.98070   0.41890   Biso      1.000     C          -0.007148999999999999         
         C16       1.0000    0.06470   0.73830   0.05040   Biso      1.000     C          0.640559  
         C17       1.0000    0.17600   0.04160   0.66670   Biso      1.000     C          0.599075  
         C18       1.0000    0.58110   0.57250   0.36280   Biso      1.000     C          -0.09449099999999999          
         C19       1.0000    0.03910   0.63280   0.89010   Biso      1.000     C          -0.117193           
         C20       1.0000    0.03150   0.61570   0.02200   Biso      1.000     C          -0.020817           
         C21       1.0000    0.32500   0.73190   0.31940   Biso      1.000     C          0.601945  
         C22       1.0000    0.41680   0.61130   0.41140   Biso      1.000     C          -0.0068650000000000004        
         C23       1.0000    0.33670   0.53710   0.54870   Biso      1.000     C          -0.097929           
         C24       1.0000    0.99240   0.48290   0.13250   Biso      1.000     C          -0.091654           
         H1        1.0000    0.45860   0.14670   0.62000   Biso      1.000     H          0.108673  
         H2        1.0000    0.01260   0.52840   0.77880   Biso      1.000     H          0.13133   
         H3        1.0000    0.93480   0.27860   0.18350   Biso      1.000     H          0.12192   
         H4        1.0000    0.36410   0.37980   0.72940   Biso      1.000     H          0.11506199999999998           
         H5        1.0000    0.22640   0.56130   0.58180   Biso      1.000     H          0.11939100000000001           
         H6        1.0000    0.77360   0.43870   0.41820   Biso      1.000     H          0.11939100000000001           
         H7        1.0000    0.63590   0.62020   0.27060   Biso      1.000     H          0.115061  
         H8        1.0000    0.98740   0.47160   0.22120   Biso      1.000     H          0.131329  
         H9        1.0000    0.71910   0.11630   0.48430   Biso      1.000     H          0.12305   
         H10       1.0000    0.06520   0.72140   0.81650   Biso      1.000     H          0.12191700000000001           
         H11       1.0000    0.28090   0.88370   0.51570   Biso      1.000     H          0.12305   
         H12       1.0000    0.54140   0.85330   0.38000   Biso      1.000     H          0.108674  
         O1        1.0000    0.39670   0.80170   0.19380   Biso      1.000     O          -0.696567           
         O2        1.0000    0.17680   0.76310   0.37000   Biso      1.000     O          -0.613471           
         O3        1.0000    0.12930   0.70740   0.14660   Biso      1.000     O          -0.583384           
         O4        1.0000    0.03090   0.86830   0.97760   Biso      1.000     O          -0.7686649999999999           
         O5        1.0000    0.94160   0.02000   0.32780   Biso      1.000     O          -0.627009           
         O6        1.0000    0.05840   0.98000   0.67220   Biso      1.000     O          -0.627011           
         O7        1.0000    0.84320   0.87920   0.26700   Biso      1.000     O          -0.6262939999999999           
         O8        1.0000    0.60330   0.19830   0.80620   Biso      1.000     O          -0.696597           
         O9        1.0000    0.82320   0.23690   0.63000   Biso      1.000     O          -0.613487           
         O10       1.0000    0.87070   0.29260   0.85340   Biso      1.000     O          -0.5834   
         O11       1.0000    0.96910   0.13170   0.02240   Biso      1.000     O          -0.768663           
         O12       1.0000    0.15680   0.12080   0.73300   Biso      1.000     O          -0.626296           
         Tb1       1.0000    0.86801   0.06140   0.84484   Biso      1.000     Tb          2.01666   
         Tb2       1.0000    0.13200   0.93860   0.15515   Biso      1.000     Tb          2.016614 