
##########################################################################
#               Crystallographic Information Format file
#               Produced by PyCifRW module
#
#  This is a CIF file.  CIF has been adopted by the International
#  Union of Crystallography as the standard for data archiving and
#  transmission.
#
#  For information on this file format, follow the CIF links at
#  http://www.iucr.org
##########################################################################

data_image0

_cell_length_a                          9.029
_cell_length_b                          10.934
_cell_length_c                          13.146
_cell_angle_alpha                       90.031
_cell_angle_beta                        90
_cell_angle_gamma                       90
_symmetry_space_group_name_H-M          'P 1'
_symmetry_int_tables_number             1
loop_
  _symmetry_equiv_pos_as_xyz
         'x, y, z' 
loop_
  _atom_site_label
  _atom_site_occupancy
  _atom_site_fract_x
  _atom_site_fract_y
  _atom_site_fract_z
  _atom_site_thermal_displace_type
  _atom_site_B_iso_or_equiv
  _atom_site_type_symbol
  _atom_site_charge
         C1        1.0000    0.21460   0.84750   0.88325   Biso      1.000     C          0.027581  
         C2        1.0000    0.69870   0.86470   0.26445   Biso      1.000     C          0.634497  
         C3        1.0000    0.93470   0.05460   0.25723   Biso      1.000     C          0.6614979999999999  
         C4        1.0000    0.24910   0.35922   0.49663   Biso      1.000     C          0.586816  
         C5        1.0000    0.19210   0.53130   0.31257   Biso      1.000     C          -0.170458           
         C6        1.0000    0.09690   0.42327   0.27598   Biso      1.000     C          0.020835  
         C7        1.0000    0.34200   0.46800   0.33787   Biso      1.000     C          -0.183545           
         C8        1.0000    0.28540   0.34750   0.38325   Biso      1.000     C          0.027581  
         C9        1.0000    0.19870   0.63530   0.23555   Biso      1.000     C          0.634497  
         C10       1.0000    0.43470   0.44540   0.24277   Biso      1.000     C          0.6614979999999999  
         C11       1.0000    0.25090   0.85922   0.99663   Biso      1.000     C          0.586816  
         C12       1.0000    0.30790   0.03130   0.81257   Biso      1.000     C          -0.170458           
         C13       1.0000    0.78540   0.15250   0.11675   Biso      1.000     C          0.027581  
         C14       1.0000    0.56450   0.94710   0.80352   Biso      1.000     C          0.5899310000000001  
         C15       1.0000    0.15800   0.96800   0.83787   Biso      1.000     C          -0.183545           
         C16       1.0000    0.30130   0.13530   0.73555   Biso      1.000     C          0.634497  
         C17       1.0000    0.06530   0.94540   0.74277   Biso      1.000     C          0.6614979999999999  
         C18       1.0000    0.75090   0.64078   0.50337   Biso      1.000     C          0.586816  
         C19       1.0000    0.80790   0.46870   0.68743   Biso      1.000     C          -0.170458           
         C20       1.0000    0.06450   0.55290   0.69648   Biso      1.000     C          0.5899310000000001  
         C21       1.0000    0.90310   0.57673   0.72402   Biso      1.000     C          0.020835  
         C22       1.0000    0.65800   0.53200   0.66213   Biso      1.000     C          -0.183545           
         C23       1.0000    0.71460   0.65250   0.61675   Biso      1.000     C          0.027581  
         C24       1.0000    0.80130   0.36470   0.76445   Biso      1.000     C          0.634497  
         C25       1.0000    0.56530   0.55460   0.75723   Biso      1.000     C          0.6614979999999999  
         C26       1.0000    0.40310   0.92327   0.77598   Biso      1.000     C          0.020835  
         C27       1.0000    0.84200   0.03200   0.16213   Biso      1.000     C          -0.183545           
         C28       1.0000    0.93550   0.44710   0.30352   Biso      1.000     C          0.5899310000000001  
         C29       1.0000    0.43550   0.05290   0.19648   Biso      1.000     C          0.5899310000000001  
         C30       1.0000    0.69210   0.96870   0.18743   Biso      1.000     C          -0.170458           
         C31       1.0000    0.74910   0.14078   0.00337   Biso      1.000     C          0.586816  
         C32       1.0000    0.59690   0.07673   0.22402   Biso      1.000     C          0.020835  
         H1        1.0000    0.60720   0.08730   0.29770   Biso      1.000     H          0.109446  
         H2        1.0000    0.89780   0.98490   0.11160   Biso      1.000     H          0.13727   
         H3        1.0000    0.85940   0.21690   0.12680   Biso      1.000     H          0.11665999999999999           
         H4        1.0000    0.14950   0.56280   0.37590   Biso      1.000     H          0.11597400000000001           
         H5        1.0000    0.10720   0.41270   0.20230   Biso      1.000     H          0.109446  
         H6        1.0000    0.39780   0.51510   0.38840   Biso      1.000     H          0.13727   
         H7        1.0000    0.35940   0.28310   0.37320   Biso      1.000     H          0.11665999999999999           
         H8        1.0000    0.64950   0.93720   0.12410   Biso      1.000     H          0.11597400000000001           
         H9        1.0000    0.39280   0.91270   0.70230   Biso      1.000     H          0.109446  
         H10       1.0000    0.35050   0.06280   0.87590   Biso      1.000     H          0.11597400000000001           
         H11       1.0000    0.60220   0.48490   0.61160   Biso      1.000     H          0.13727   
         H12       1.0000    0.89280   0.58730   0.79770   Biso      1.000     H          0.109446  
         H13       1.0000    0.64060   0.71690   0.62680   Biso      1.000     H          0.11665999999999999           
         H14       1.0000    0.85050   0.43720   0.62410   Biso      1.000     H          0.11597400000000001           
         H15       1.0000    0.14060   0.78310   0.87320   Biso      1.000     H          0.11665899999999998           
         H16       1.0000    0.10220   0.01510   0.88840   Biso      1.000     H          0.13727   
         O1        1.0000    0.21270   0.61343   0.14479   Biso      1.000     O          -0.5792510000000001           
         O2        1.0000    0.31270   0.24164   0.77343   Biso      1.000     O          -0.593735           
         O3        1.0000    0.87845   0.53374   0.25404   Biso      1.000     O          -0.507704           
         O4        1.0000    0.34764   0.81729   0.82845   Biso      1.000     O          -0.2604   
         O5        1.0000    0.10636   0.86110   0.68610   Biso      1.000     O          -0.5357270000000001           
         O6        1.0000    0.37760   0.83828   0.02853   Biso      1.000     O          -0.522077           
         O7        1.0000    0.14171   0.88934   0.05314   Biso      1.000     O          -0.517825           
         O8        1.0000    0.54550   0.51277   0.22537   Biso      1.000     O          -0.570214           
         O9        1.0000    0.62574   0.88814   0.87259   Biso      1.000     O          -0.552619           
         O10       1.0000    0.12574   0.61186   0.62741   Biso      1.000     O          -0.552619           
         O11       1.0000    0.28730   0.11343   0.64479   Biso      1.000     O          -0.5792510000000001           
         O12       1.0000    0.45450   0.48723   0.77463   Biso      1.000     O          -0.570214           
         O13       1.0000    0.81270   0.25836   0.72657   Biso      1.000     O          -0.593735           
         O14       1.0000    0.64171   0.61066   0.44686   Biso      1.000     O          -0.517825           
         O15       1.0000    0.87760   0.66172   0.47147   Biso      1.000     O          -0.522077           
         O16       1.0000    0.60636   0.63890   0.81390   Biso      1.000     O          -0.5357270000000001           
         O17       1.0000    0.84764   0.68271   0.67155   Biso      1.000     O          -0.2604   
         O18       1.0000    0.62155   0.03374   0.75404   Biso      1.000     O          -0.507704           
         O19       1.0000    0.87426   0.38814   0.37259   Biso      1.000     O          -0.552619           
         O20       1.0000    0.95450   0.01277   0.72537   Biso      1.000     O          -0.570214           
         O21       1.0000    0.18730   0.74164   0.27343   Biso      1.000     O          -0.593735           
         O22       1.0000    0.12155   0.46626   0.74596   Biso      1.000     O          -0.507704           
         O23       1.0000    0.12240   0.33828   0.52853   Biso      1.000     O          -0.522077           
         O24       1.0000    0.78730   0.38657   0.85521   Biso      1.000     O          -0.5792510000000001           
         O25       1.0000    0.65236   0.18271   0.17155   Biso      1.000     O          -0.2604   
         O26       1.0000    0.35829   0.38934   0.55314   Biso      1.000     O          -0.517825           
         O27       1.0000    0.62240   0.16172   0.97147   Biso      1.000     O          -0.522077           
         O28       1.0000    0.85829   0.11066   0.94686   Biso      1.000     O          -0.517825           
         O29       1.0000    0.68730   0.75836   0.22657   Biso      1.000     O          -0.593735           
         O30       1.0000    0.89364   0.13890   0.31390   Biso      1.000     O          -0.535728           
         O31       1.0000    0.04550   0.98723   0.27463   Biso      1.000     O          -0.570214           
         O32       1.0000    0.71270   0.88657   0.35521   Biso      1.000     O          -0.5792510000000001           
         O33       1.0000    0.37845   0.96626   0.24596   Biso      1.000     O          -0.507704           
         O34       1.0000    0.15236   0.31729   0.32845   Biso      1.000     O          -0.2604   
         O35       1.0000    0.39364   0.36110   0.18610   Biso      1.000     O          -0.5357270000000001           
         O36       1.0000    0.37426   0.11186   0.12741   Biso      1.000     O          -0.552619           
         Zn1       1.0000    0.01306   0.76547   0.57147   Biso      1.000     Zn          1.0181440000000002  
         Zn2       1.0000    0.69417   0.60552   0.30306   Biso      1.000     Zn          0.9749040000000001  
         Zn3       1.0000    0.51306   0.73453   0.92853   Biso      1.000     Zn          1.018145  
         Zn4       1.0000    0.19417   0.89448   0.19694   Biso      1.000     Zn          0.9749040000000001  
         Zn5       1.0000    0.98694   0.23453   0.42853   Biso      1.000     Zn          1.018145  
         Zn6       1.0000    0.30583   0.39448   0.69694   Biso      1.000     Zn          0.9749040000000001  
         Zn7       1.0000    0.48694   0.26547   0.07147   Biso      1.000     Zn          1.018145  
         Zn8       1.0000    0.80583   0.10552   0.80306   Biso      1.000     Zn          0.9749040000000001 