
##########################################################################
#               Crystallographic Information Format file
#               Produced by PyCifRW module
#
#  This is a CIF file.  CIF has been adopted by the International
#  Union of Crystallography as the standard for data archiving and
#  transmission.
#
#  For information on this file format, follow the CIF links at
#  http://www.iucr.org
##########################################################################

data_image0

_cell_length_a                          6.2924
_cell_length_b                          8.6702
_cell_length_c                          12.9527
_cell_angle_alpha                       105.432
_cell_angle_beta                        90.451
_cell_angle_gamma                       105.118
_symmetry_space_group_name_H-M          'P 1'
_symmetry_int_tables_number             1
loop_
  _symmetry_equiv_pos_as_xyz
         'x, y, z' 
loop_
  _atom_site_label
  _atom_site_occupancy
  _atom_site_fract_x
  _atom_site_fract_y
  _atom_site_fract_z
  _atom_site_thermal_displace_type
  _atom_site_B_iso_or_equiv
  _atom_site_type_symbol
  _atom_site_charge
         C1        1.0000    0.94560   0.55190   0.04580   Biso      1.000     C          0.531222  
         C2        1.0000    0.73430   0.89550   0.21950   Biso      1.000     C          0.523143  
         C3        1.0000    0.59480   0.57950   0.52050   Biso      1.000     C          0.48043100000000005           
         C4        1.0000    0.05440   0.44810   0.95420   Biso      1.000     C          0.531223  
         C5        1.0000    0.71690   0.79270   0.86870   Biso      1.000     C          0.8279709999999999  
         C6        1.0000    0.28310   0.20730   0.13130   Biso      1.000     C          0.82799   
         C7        1.0000    0.54350   0.80330   0.12890   Biso      1.000     C          0.515031  
         C8        1.0000    0.45650   0.19670   0.87110   Biso      1.000     C          0.515045  
         C9        1.0000    0.40520   0.42050   0.47950   Biso      1.000     C          0.48043   
         C10       1.0000    0.26570   0.10450   0.78050   Biso      1.000     C          0.52315   
         Eu1       1.0000    0.80920   0.16664   0.07517   Biso      1.000     Eu          1.291709  
         Eu2       1.0000    0.55863   0.52867   0.25736   Biso      1.000     Eu          1.307695  
         Eu3       1.0000    0.44137   0.47133   0.74264   Biso      1.000     Eu          1.307693  
         Eu4       1.0000    0.19080   0.83336   0.92483   Biso      1.000     Eu          1.291707  
         H1        1.0000    0.83500   0.28890   0.32510   Biso      1.000     H          0.38450700000000004           
         H2        1.0000    0.23080   0.67520   0.39770   Biso      1.000     H          0.487796  
         H3        1.0000    0.76920   0.32480   0.60230   Biso      1.000     H          0.48779300000000003           
         H4        1.0000    0.60980   0.27940   0.65990   Biso      1.000     H          0.444928  
         H5        1.0000    0.86680   0.35390   0.20920   Biso      1.000     H          0.294288  
         H6        1.0000    0.13320   0.64610   0.79080   Biso      1.000     H          0.29429099999999997           
         H7        1.0000    0.39020   0.72060   0.34010   Biso      1.000     H          0.44493299999999997           
         H8        1.0000    0.16500   0.71110   0.67490   Biso      1.000     H          0.384502  
         O1        1.0000    0.83490   0.03960   0.22300   Biso      1.000     O          -0.45615  
         O2        1.0000    0.76630   0.81650   0.28320   Biso      1.000     O          -0.47884499999999997          
         O3        1.0000    0.44250   0.65890   0.12640   Biso      1.000     O          -0.430813           
         O4        1.0000    0.68600   0.64920   0.45360   Biso      1.000     O          -0.47128000000000003          
         O5        1.0000    0.50580   0.88400   0.06650   Biso      1.000     O          -0.5157689999999999           
         O6        1.0000    0.26780   0.67140   0.33830   Biso      1.000     O          -0.899388           
         O7        1.0000    0.01980   0.29790   0.94460   Biso      1.000     O          -0.415286           
         O8        1.0000    0.85930   0.39840   0.29480   Biso      1.000     O          -0.659619           
         O9        1.0000    0.63940   0.62860   0.61940   Biso      1.000     O          -0.42464799999999997          
         O10       1.0000    0.82670   0.47150   0.10320   Biso      1.000     O          -0.578422           
         O11       1.0000    0.20250   0.33100   0.16130   Biso      1.000     O          -0.581885           
         O12       1.0000    0.48750   0.23080   0.16050   Biso      1.000     O          -0.619332           
         O13       1.0000    0.73220   0.32860   0.66170   Biso      1.000     O          -0.8993909999999999           
         O14       1.0000    0.14070   0.60160   0.70520   Biso      1.000     O          -0.65962  
         O15       1.0000    0.98020   0.70210   0.05540   Biso      1.000     O          -0.415285           
         O16       1.0000    0.49420   0.11600   0.93350   Biso      1.000     O          -0.515767           
         O17       1.0000    0.55750   0.34110   0.87360   Biso      1.000     O          -0.4308   
         O18       1.0000    0.23370   0.18350   0.71680   Biso      1.000     O          -0.478838           
         O19       1.0000    0.16510   0.96040   0.77700   Biso      1.000     O          -0.456139           
         O20       1.0000    0.31400   0.35080   0.54640   Biso      1.000     O          -0.47127600000000003          
         O21       1.0000    0.36060   0.37140   0.38060   Biso      1.000     O          -0.42465  
         O22       1.0000    0.83970   0.93190   0.92450   Biso      1.000     O          -0.557312           
         O23       1.0000    0.79750   0.66900   0.83870   Biso      1.000     O          -0.5818810000000001           
         O24       1.0000    0.51250   0.76920   0.83950   Biso      1.000     O          -0.619332           
         O25       1.0000    0.16030   0.06810   0.07550   Biso      1.000     O          -0.5573199999999999           
         O26       1.0000    0.17330   0.52850   0.89680   Biso      1.000     O          -0.57843 