
##########################################################################
#               Crystallographic Information Format file
#               Produced by PyCifRW module
#
#  This is a CIF file.  CIF has been adopted by the International
#  Union of Crystallography as the standard for data archiving and
#  transmission.
#
#  For information on this file format, follow the CIF links at
#  http://www.iucr.org
##########################################################################

data_image0

_cell_length_a                          18.6233
_cell_length_b                          18.6233
_cell_length_c                          18.6233
_cell_angle_alpha                       90
_cell_angle_beta                        90
_cell_angle_gamma                       90
_symmetry_space_group_name_H-M          'P 1'
_symmetry_int_tables_number             1
loop_
  _symmetry_equiv_pos_as_xyz
         'x, y, z' 
loop_
  _atom_site_label
  _atom_site_occupancy
  _atom_site_fract_x
  _atom_site_fract_y
  _atom_site_fract_z
  _atom_site_thermal_displace_type
  _atom_site_B_iso_or_equiv
  _atom_site_type_symbol
  _atom_site_charge
         C1        1.0000    0.85290   0.85290   0.66380   Biso      1.000     C          0.246076  
         C2        1.0000    0.75980   0.85170   0.75980   Biso      1.000     C          -0.158089           
         C3        1.0000    0.24020   0.85170   0.24020   Biso      1.000     C          -0.158091           
         C4        1.0000    0.14830   0.24020   0.75980   Biso      1.000     C          -0.158087           
         C5        1.0000    0.14830   0.75980   0.24020   Biso      1.000     C          -0.158091           
         C6        1.0000    0.85170   0.24020   0.24020   Biso      1.000     C          -0.158087           
         C7        1.0000    0.85170   0.75980   0.75980   Biso      1.000     C          -0.158089           
         C8        1.0000    0.75980   0.14830   0.24020   Biso      1.000     C          -0.158088           
         C9        1.0000    0.27090   0.17920   0.17920   Biso      1.000     C          0.054191  
         C10       1.0000    0.72910   0.82080   0.17920   Biso      1.000     C          0.054193  
         C11       1.0000    0.66380   0.85290   0.14710   Biso      1.000     C          0.246075  
         C12       1.0000    0.72910   0.17920   0.82080   Biso      1.000     C          0.054191  
         C13       1.0000    0.27090   0.82080   0.82080   Biso      1.000     C          0.054192  
         C14       1.0000    0.33620   0.85290   0.85290   Biso      1.000     C          0.246075  
         C15       1.0000    0.17920   0.27090   0.17920   Biso      1.000     C          0.054192  
         C16       1.0000    0.33620   0.14710   0.14710   Biso      1.000     C          0.246075  
         C17       1.0000    0.24020   0.14830   0.75980   Biso      1.000     C          -0.158087           
         C18       1.0000    0.75980   0.24020   0.14830   Biso      1.000     C          -0.158087           
         C19       1.0000    0.24020   0.75980   0.14830   Biso      1.000     C          -0.158091           
         C20       1.0000    0.82080   0.82080   0.72910   Biso      1.000     C          0.054193  
         C21       1.0000    0.24020   0.24020   0.14830   Biso      1.000     C          -0.158087           
         C22       1.0000    0.75980   0.75980   0.14830   Biso      1.000     C          -0.158086           
         C23       1.0000    0.75980   0.24020   0.85170   Biso      1.000     C          -0.158088           
         C24       1.0000    0.24020   0.75980   0.85170   Biso      1.000     C          -0.158087           
         C25       1.0000    0.14830   0.24020   0.24020   Biso      1.000     C          -0.158088           
         C26       1.0000    0.14830   0.75980   0.75980   Biso      1.000     C          -0.158088           
         C27       1.0000    0.85170   0.75980   0.24020   Biso      1.000     C          -0.158087           
         C28       1.0000    0.85170   0.24020   0.75980   Biso      1.000     C          -0.15809  
         C29       1.0000    0.24020   0.14830   0.24020   Biso      1.000     C          -0.158088           
         C30       1.0000    0.75980   0.14830   0.75980   Biso      1.000     C          -0.158089           
         C31       1.0000    0.24020   0.85170   0.75980   Biso      1.000     C          -0.158086           
         C32       1.0000    0.75980   0.85170   0.24020   Biso      1.000     C          -0.158086           
         C33       1.0000    0.24020   0.24020   0.85170   Biso      1.000     C          -0.158087           
         C34       1.0000    0.75980   0.75980   0.85170   Biso      1.000     C          -0.158089           
         C35       1.0000    0.14710   0.33620   0.14710   Biso      1.000     C          0.246075  
         C36       1.0000    0.17920   0.72910   0.82080   Biso      1.000     C          0.054194  
         C37       1.0000    0.66380   0.14710   0.85290   Biso      1.000     C          0.246073  
         C38       1.0000    0.82080   0.72910   0.17920   Biso      1.000     C          0.054194  
         C39       1.0000    0.85290   0.33620   0.14710   Biso      1.000     C          0.246076  
         C40       1.0000    0.27090   0.17920   0.82080   Biso      1.000     C          0.054194  
         C41       1.0000    0.14710   0.66380   0.85290   Biso      1.000     C          0.246076  
         C42       1.0000    0.72910   0.17920   0.17920   Biso      1.000     C          0.054194  
         C43       1.0000    0.66380   0.14710   0.14710   Biso      1.000     C          0.246075  
         C44       1.0000    0.72910   0.82080   0.82080   Biso      1.000     C          0.054192  
         C45       1.0000    0.66380   0.85290   0.85290   Biso      1.000     C          0.246074  
         C46       1.0000    0.27090   0.82080   0.17920   Biso      1.000     C          0.054192  
         C47       1.0000    0.33620   0.85290   0.14710   Biso      1.000     C          0.246076  
         C48       1.0000    0.17920   0.17920   0.72910   Biso      1.000     C          0.054194  
         C49       1.0000    0.14710   0.14710   0.66380   Biso      1.000     C          0.246075  
         C50       1.0000    0.17920   0.82080   0.27090   Biso      1.000     C          0.054192  
         C51       1.0000    0.14710   0.85290   0.33620   Biso      1.000     C          0.246076  
         C52       1.0000    0.82080   0.17920   0.27090   Biso      1.000     C          0.054194  
         C53       1.0000    0.85290   0.14710   0.33620   Biso      1.000     C          0.246075  
         C54       1.0000    0.82080   0.27090   0.17920   Biso      1.000     C          0.054194  
         C55       1.0000    0.14710   0.66380   0.14710   Biso      1.000     C          0.246076  
         C56       1.0000    0.33620   0.14710   0.85290   Biso      1.000     C          0.246076  
         C57       1.0000    0.85290   0.66380   0.85290   Biso      1.000     C          0.246076  
         C58       1.0000    0.85290   0.66380   0.14710   Biso      1.000     C          0.246073  
         C59       1.0000    0.82080   0.27090   0.82080   Biso      1.000     C          0.054193  
         C60       1.0000    0.17920   0.72910   0.17920   Biso      1.000     C          0.054192  
         C61       1.0000    0.17920   0.17920   0.27090   Biso      1.000     C          0.054193  
         C62       1.0000    0.14710   0.14710   0.33620   Biso      1.000     C          0.246073  
         C63       1.0000    0.82080   0.17920   0.72910   Biso      1.000     C          0.054192  
         C64       1.0000    0.85290   0.14710   0.66380   Biso      1.000     C          0.246073  
         C65       1.0000    0.85290   0.33620   0.85290   Biso      1.000     C          0.246075  
         C66       1.0000    0.14710   0.85290   0.66380   Biso      1.000     C          0.246074  
         C67       1.0000    0.82080   0.82080   0.27090   Biso      1.000     C          0.054194  
         C68       1.0000    0.85290   0.85290   0.33620   Biso      1.000     C          0.246075  
         C69       1.0000    0.17920   0.27090   0.82080   Biso      1.000     C          0.054194  
         C70       1.0000    0.14710   0.33620   0.85290   Biso      1.000     C          0.246076  
         C71       1.0000    0.17920   0.82080   0.72910   Biso      1.000     C          0.054194  
         C72       1.0000    0.82080   0.72910   0.82080   Biso      1.000     C          0.054193  
         Cu1       1.0000    0.00000   0.50000   0.13144   Biso      1.000     Cu          0.554502  
         Cu2       1.0000    0.00000   0.50000   0.86856   Biso      1.000     Cu          0.5545    
         Cu3       1.0000    0.13144   0.00000   0.50000   Biso      1.000     Cu          0.554517  
         Cu4       1.0000    0.13144   0.50000   0.00000   Biso      1.000     Cu          0.554511  
         Cu5       1.0000    0.50000   0.00000   0.13144   Biso      1.000     Cu          0.5545    
         Cu6       1.0000    0.50000   0.00000   0.86856   Biso      1.000     Cu          0.554503  
         Cu7       1.0000    0.00000   0.13144   0.50000   Biso      1.000     Cu          0.554514  
         Cu8       1.0000    0.00000   0.86856   0.50000   Biso      1.000     Cu          0.554513  
         Cu9       1.0000    0.50000   0.86856   0.00000   Biso      1.000     Cu          0.554514  
         Cu10      1.0000    0.86856   0.50000   0.00000   Biso      1.000     Cu          0.554513  
         Cu11      1.0000    0.50000   0.13144   0.00000   Biso      1.000     Cu          0.554515  
         Cu12      1.0000    0.86856   0.00000   0.50000   Biso      1.000     Cu          0.554515  
         H1        1.0000    0.73960   0.10730   0.26040   Biso      1.000     H          0.136902  
         H2        1.0000    0.73960   0.26040   0.89270   Biso      1.000     H          0.1369    
         H3        1.0000    0.26040   0.73960   0.89270   Biso      1.000     H          0.136903  
         H4        1.0000    0.10730   0.26040   0.26040   Biso      1.000     H          0.136901  
         H5        1.0000    0.89270   0.73960   0.73960   Biso      1.000     H          0.136901  
         H6        1.0000    0.10730   0.73960   0.73960   Biso      1.000     H          0.136902  
         H7        1.0000    0.89270   0.73960   0.26040   Biso      1.000     H          0.136903  
         H8        1.0000    0.89270   0.26040   0.73960   Biso      1.000     H          0.1369    
         H9        1.0000    0.26040   0.10730   0.26040   Biso      1.000     H          0.136902  
         H10       1.0000    0.73960   0.10730   0.73960   Biso      1.000     H          0.1369    
         H11       1.0000    0.73960   0.73960   0.10730   Biso      1.000     H          0.136903  
         H12       1.0000    0.26040   0.89270   0.73960   Biso      1.000     H          0.136902  
         H13       1.0000    0.26040   0.26040   0.89270   Biso      1.000     H          0.136903  
         H14       1.0000    0.73960   0.73960   0.89270   Biso      1.000     H          0.136901  
         H15       1.0000    0.26040   0.73960   0.10730   Biso      1.000     H          0.1369    
         H16       1.0000    0.73960   0.26040   0.10730   Biso      1.000     H          0.136903  
         H17       1.0000    0.26040   0.10730   0.73960   Biso      1.000     H          0.136902  
         H18       1.0000    0.73960   0.89270   0.73960   Biso      1.000     H          0.136901  
         H19       1.0000    0.26040   0.89270   0.26040   Biso      1.000     H          0.1369    
         H20       1.0000    0.10730   0.26040   0.73960   Biso      1.000     H          0.136903  
         H21       1.0000    0.10730   0.73960   0.26040   Biso      1.000     H          0.136899  
         H22       1.0000    0.73960   0.89270   0.26040   Biso      1.000     H          0.136903  
         H23       1.0000    0.26040   0.26040   0.10730   Biso      1.000     H          0.136901  
         H24       1.0000    0.89270   0.26040   0.26040   Biso      1.000     H          0.136903  
         N1        1.0000    0.17389   0.36899   0.91146   Biso      1.000     N          -0.211499           
         N2        1.0000    0.07781   0.42462   0.12873   Biso      1.000     N          -0.066707           
         N3        1.0000    0.57538   0.92219   0.87127   Biso      1.000     N          -0.066707           
         N4        1.0000    0.08854   0.36899   0.17389   Biso      1.000     N          -0.211484           
         N5        1.0000    0.36899   0.91146   0.17389   Biso      1.000     N          -0.2115   
         N6        1.0000    0.42462   0.87127   0.92219   Biso      1.000     N          -0.066709           
         N7        1.0000    0.42462   0.92219   0.12873   Biso      1.000     N          -0.066689           
         N8        1.0000    0.36899   0.82611   0.91146   Biso      1.000     N          -0.211482           
         N9        1.0000    0.08854   0.17389   0.63101   Biso      1.000     N          -0.211499           
         N10       1.0000    0.57538   0.12873   0.92219   Biso      1.000     N          -0.066709           
         N11       1.0000    0.07781   0.12873   0.57538   Biso      1.000     N          -0.066686           
         N12       1.0000    0.08854   0.82611   0.36899   Biso      1.000     N          -0.211501           
         N13       1.0000    0.07781   0.87127   0.42462   Biso      1.000     N          -0.066691           
         N14       1.0000    0.63101   0.17389   0.91146   Biso      1.000     N          -0.211484           
         N15       1.0000    0.91146   0.17389   0.36899   Biso      1.000     N          -0.211499           
         N16       1.0000    0.57538   0.87127   0.07781   Biso      1.000     N          -0.066709           
         N17       1.0000    0.92219   0.12873   0.42462   Biso      1.000     N          -0.066686           
         N18       1.0000    0.63101   0.82611   0.08854   Biso      1.000     N          -0.211482           
         N19       1.0000    0.91146   0.82611   0.63101   Biso      1.000     N          -0.211501           
         N20       1.0000    0.42462   0.12873   0.07781   Biso      1.000     N          -0.066711           
         N21       1.0000    0.63101   0.91146   0.82611   Biso      1.000     N          -0.211484           
         N22       1.0000    0.08854   0.63101   0.82611   Biso      1.000     N          -0.2115   
         N23       1.0000    0.57538   0.07781   0.12873   Biso      1.000     N          -0.066705           
         N24       1.0000    0.07781   0.57538   0.87127   Biso      1.000     N          -0.066687           
         N25       1.0000    0.82611   0.91146   0.36899   Biso      1.000     N          -0.2115   
         N26       1.0000    0.12873   0.42462   0.92219   Biso      1.000     N          -0.066691           
         N27       1.0000    0.12873   0.92219   0.57538   Biso      1.000     N          -0.066707           
         N28       1.0000    0.82611   0.63101   0.91146   Biso      1.000     N          -0.2115   
         N29       1.0000    0.17389   0.91146   0.63101   Biso      1.000     N          -0.211484           
         N30       1.0000    0.87127   0.57538   0.92219   Biso      1.000     N          -0.066691           
         N31       1.0000    0.87127   0.07781   0.57538   Biso      1.000     N          -0.066708           
         N32       1.0000    0.17389   0.63101   0.08854   Biso      1.000     N          -0.2115   
         N33       1.0000    0.82611   0.08854   0.63101   Biso      1.000     N          -0.211483           
         N34       1.0000    0.87127   0.92219   0.42462   Biso      1.000     N          -0.066688           
         N35       1.0000    0.12873   0.07781   0.42462   Biso      1.000     N          -0.066708           
         N36       1.0000    0.82611   0.36899   0.08854   Biso      1.000     N          -0.211499           
         N37       1.0000    0.92219   0.42462   0.87127   Biso      1.000     N          -0.066707           
         N38       1.0000    0.87127   0.42462   0.07781   Biso      1.000     N          -0.06669  
         N39       1.0000    0.91146   0.36899   0.82611   Biso      1.000     N          -0.211484           
         N40       1.0000    0.36899   0.08854   0.82611   Biso      1.000     N          -0.2115   
         N41       1.0000    0.92219   0.57538   0.12873   Biso      1.000     N          -0.066704           
         N42       1.0000    0.42462   0.07781   0.87127   Biso      1.000     N          -0.066686           
         N43       1.0000    0.91146   0.63101   0.17389   Biso      1.000     N          -0.211482           
         N44       1.0000    0.63101   0.08854   0.17389   Biso      1.000     N          -0.211483           
         N45       1.0000    0.17389   0.08854   0.36899   Biso      1.000     N          -0.211482           
         N46       1.0000    0.12873   0.57538   0.07781   Biso      1.000     N          -0.066692           
         N47       1.0000    0.36899   0.08854   0.17389   Biso      1.000     N          -0.211504           
         N48       1.0000    0.63101   0.82611   0.91146   Biso      1.000     N          -0.211506           
         N49       1.0000    0.87127   0.57538   0.07781   Biso      1.000     N          -0.06666  
         N50       1.0000    0.17389   0.36899   0.08854   Biso      1.000     N          -0.211505           
         N51       1.0000    0.12873   0.42462   0.07781   Biso      1.000     N          -0.066641           
         N52       1.0000    0.82611   0.36899   0.91146   Biso      1.000     N          -0.211505           
         N53       1.0000    0.87127   0.42462   0.92219   Biso      1.000     N          -0.066642           
         N54       1.0000    0.17389   0.63101   0.91146   Biso      1.000     N          -0.211503           
         N55       1.0000    0.12873   0.57538   0.92219   Biso      1.000     N          -0.066643           
         N56       1.0000    0.63101   0.91146   0.17389   Biso      1.000     N          -0.211506           
         N57       1.0000    0.57538   0.92219   0.12873   Biso      1.000     N          -0.066636           
         N58       1.0000    0.36899   0.91146   0.82611   Biso      1.000     N          -0.211506           
         N59       1.0000    0.07781   0.12873   0.42462   Biso      1.000     N          -0.066661           
         N60       1.0000    0.08854   0.17389   0.36899   Biso      1.000     N          -0.211489           
         N61       1.0000    0.07781   0.87127   0.57538   Biso      1.000     N          -0.066659           
         N62       1.0000    0.08854   0.82611   0.63101   Biso      1.000     N          -0.211487           
         N63       1.0000    0.92219   0.12873   0.57538   Biso      1.000     N          -0.066661           
         N64       1.0000    0.91146   0.17389   0.63101   Biso      1.000     N          -0.211489           
         N65       1.0000    0.92219   0.87127   0.42462   Biso      1.000     N          -0.066661           
         N66       1.0000    0.91146   0.82611   0.36899   Biso      1.000     N          -0.211487           
         N67       1.0000    0.57538   0.07781   0.87127   Biso      1.000     N          -0.066657           
         N68       1.0000    0.63101   0.08854   0.82611   Biso      1.000     N          -0.211488           
         N69       1.0000    0.42462   0.07781   0.12873   Biso      1.000     N          -0.066637           
         N70       1.0000    0.82611   0.63101   0.08854   Biso      1.000     N          -0.211487           
         N71       1.0000    0.92219   0.87127   0.57538   Biso      1.000     N          -0.066691           
         N72       1.0000    0.12873   0.07781   0.57538   Biso      1.000     N          -0.066661           
         N73       1.0000    0.87127   0.07781   0.42462   Biso      1.000     N          -0.066661           
         N74       1.0000    0.57538   0.87127   0.92219   Biso      1.000     N          -0.066642           
         N75       1.0000    0.36899   0.17389   0.91146   Biso      1.000     N          -0.211504           
         N76       1.0000    0.42462   0.12873   0.92219   Biso      1.000     N          -0.066642           
         N77       1.0000    0.36899   0.82611   0.08854   Biso      1.000     N          -0.211506           
         N78       1.0000    0.42462   0.92219   0.87127   Biso      1.000     N          -0.066637           
         N79       1.0000    0.42462   0.87127   0.07781   Biso      1.000     N          -0.066645           
         N80       1.0000    0.63101   0.17389   0.08854   Biso      1.000     N          -0.211504           
         N81       1.0000    0.57538   0.12873   0.07781   Biso      1.000     N          -0.06664  
         N82       1.0000    0.91146   0.63101   0.82611   Biso      1.000     N          -0.211505           
         N83       1.0000    0.92219   0.57538   0.87127   Biso      1.000     N          -0.066639           
         N84       1.0000    0.91146   0.36899   0.17389   Biso      1.000     N          -0.211505           
         N85       1.0000    0.92219   0.42462   0.12873   Biso      1.000     N          -0.066639           
         N86       1.0000    0.08854   0.36899   0.82611   Biso      1.000     N          -0.211505           
         N87       1.0000    0.07781   0.42462   0.87127   Biso      1.000     N          -0.066639           
         N88       1.0000    0.08854   0.63101   0.17389   Biso      1.000     N          -0.211506           
         N89       1.0000    0.07781   0.57538   0.12873   Biso      1.000     N          -0.06664  
         N90       1.0000    0.82611   0.91146   0.63101   Biso      1.000     N          -0.211505           
         N91       1.0000    0.87127   0.92219   0.57538   Biso      1.000     N          -0.066644           
         N92       1.0000    0.17389   0.91146   0.36899   Biso      1.000     N          -0.211506           
         N93       1.0000    0.12873   0.92219   0.42462   Biso      1.000     N          -0.066645           
         N94       1.0000    0.82611   0.08854   0.36899   Biso      1.000     N          -0.211488           
         N95       1.0000    0.17389   0.08854   0.63101   Biso      1.000     N          -0.211488           
         N96       1.0000    0.36899   0.17389   0.08854   Biso      1.000     N          -0.211484 