
##########################################################################
#               Crystallographic Information Format file
#               Produced by PyCifRW module
#
#  This is a CIF file.  CIF has been adopted by the International
#  Union of Crystallography as the standard for data archiving and
#  transmission.
#
#  For information on this file format, follow the CIF links at
#  http://www.iucr.org
##########################################################################

data_image0

_cell_length_a                          14.1512
_cell_length_b                          14.5076
_cell_length_c                          25.8073
_cell_angle_alpha                       90
_cell_angle_beta                        92.166
_cell_angle_gamma                       90
_symmetry_space_group_name_H-M          'P 1'
_symmetry_int_tables_number             1
loop_
  _symmetry_equiv_pos_as_xyz
         'x, y, z' 
loop_
  _atom_site_label
  _atom_site_occupancy
  _atom_site_fract_x
  _atom_site_fract_y
  _atom_site_fract_z
  _atom_site_thermal_displace_type
  _atom_site_B_iso_or_equiv
  _atom_site_type_symbol
  _atom_site_charge
         C1        1.0000    0.35500   0.81570   0.61710   Biso      1.000     C          0.617414  
         C2        1.0000    0.00690   0.18110   0.61340   Biso      1.000     C          -0.180626           
         C3        1.0000    0.09050   0.14340   0.63670   Biso      1.000     C          0.122241  
         C4        1.0000    0.57880   0.82700   0.77040   Biso      1.000     C          -0.061314           
         C5        1.0000    0.10440   0.15440   0.68930   Biso      1.000     C          -0.222488           
         C6        1.0000    0.04200   0.20200   0.71870   Biso      1.000     C          0.11087   
         C7        1.0000    0.95720   0.23410   0.69430   Biso      1.000     C          -0.178617           
         C8        1.0000    0.94240   0.22810   0.64170   Biso      1.000     C          -0.007013           
         C9        1.0000    0.85300   0.26700   0.61500   Biso      1.000     C          0.651782  
         C10       1.0000    0.44570   0.84660   0.64260   Biso      1.000     C          -0.004043           
         C11       1.0000    0.14700   0.76700   0.38500   Biso      1.000     C          0.651782  
         C12       1.0000    0.42120   0.32700   0.22960   Biso      1.000     C          -0.061311           
         C13       1.0000    0.48250   0.35680   0.14530   Biso      1.000     C          0.278094  
         C14       1.0000    0.05760   0.72810   0.35830   Biso      1.000     C          -0.007016           
         C15       1.0000    0.53760   0.41450   0.11860   Biso      1.000     C          -0.218496           
         C16       1.0000    0.61760   0.45650   0.03630   Biso      1.000     C          0.605325  
         C17       1.0000    0.55050   0.40300   0.06650   Biso      1.000     C          -0.009091           
         C18       1.0000    0.04280   0.73410   0.30570   Biso      1.000     C          -0.178616           
         C19       1.0000    0.49400   0.33360   0.04160   Biso      1.000     C          -0.150378           
         C20       1.0000    0.37830   0.20370   0.04060   Biso      1.000     C          0.635697  
         C21       1.0000    0.43450   0.27710   0.06760   Biso      1.000     C          0.004323  
         C22       1.0000    0.43100   0.28920   0.12140   Biso      1.000     C          -0.243996           
         C23       1.0000    0.51750   0.85680   0.85470   Biso      1.000     C          0.278094  
         C24       1.0000    0.09410   0.42480   0.41080   Biso      1.000     C          -0.203522           
         C25       1.0000    0.05940   0.20330   0.77620   Biso      1.000     C          -0.058891           
         C26       1.0000    0.00220   0.28060   0.85060   Biso      1.000     C          0.283631  
         C27       1.0000    0.15830   0.09080   0.60470   Biso      1.000     C          -0.068082           
         C28       1.0000    0.32150   0.11240   0.58160   Biso      1.000     C          0.271045  
         C29       1.0000    0.56550   0.77710   0.93240   Biso      1.000     C          0.004316  
         C30       1.0000    0.31270   0.04780   0.54230   Biso      1.000     C          -0.23431  
         C31       1.0000    0.37850   0.97530   0.46490   Biso      1.000     C          0.589661  
         C32       1.0000    0.38810   0.03890   0.50840   Biso      1.000     C          0.009743  
         C33       1.0000    0.62170   0.70370   0.95940   Biso      1.000     C          0.635699  
         C34       1.0000    0.46830   0.09070   0.51370   Biso      1.000     C          -0.155559           
         C35       1.0000    0.56730   0.20960   0.56370   Biso      1.000     C          0.617836  
         C36       1.0000    0.47910   0.15190   0.55550   Biso      1.000     C          -0.007421           
         C37       1.0000    0.50600   0.83360   0.95840   Biso      1.000     C          -0.150371           
         C38       1.0000    0.40330   0.16410   0.58920   Biso      1.000     C          -0.210653           
         C39       1.0000    0.06470   0.23590   0.88320   Biso      1.000     C          -0.301689           
         C40       1.0000    0.12070   0.18500   0.97160   Biso      1.000     C          0.599756  
         C41       1.0000    0.05890   0.24360   0.93630   Biso      1.000     C          0.004115  
         C42       1.0000    0.44950   0.90300   0.93350   Biso      1.000     C          -0.009092           
         C43       1.0000    0.99700   0.30280   0.95550   Biso      1.000     C          -0.138675           
         C44       1.0000    0.86690   0.42400   0.94530   Biso      1.000     C          0.54609   
         C45       1.0000    0.93630   0.35450   0.92300   Biso      1.000     C          0.029942  
         C46       1.0000    0.38240   0.95650   0.96370   Biso      1.000     C          0.605325  
         C47       1.0000    0.93930   0.34580   0.87160   Biso      1.000     C          -0.21628  
         C48       1.0000    0.46240   0.91450   0.88140   Biso      1.000     C          -0.218496           
         C49       1.0000    0.93330   0.37420   0.43610   Biso      1.000     C          0.613704  
         C50       1.0000    0.95800   0.70200   0.28130   Biso      1.000     C          0.110863  
         C51       1.0000    0.89560   0.65440   0.31070   Biso      1.000     C          -0.222481           
         C52       1.0000    0.13310   0.92400   0.05470   Biso      1.000     C          0.54609   
         C53       1.0000    0.00300   0.80280   0.04450   Biso      1.000     C          -0.138705           
         C54       1.0000    0.88710   0.04940   0.50890   Biso      1.000     C          0.005845  
         C55       1.0000    0.94110   0.74360   0.06370   Biso      1.000     C          0.004144  
         C56       1.0000    0.87930   0.68500   0.02840   Biso      1.000     C          0.599754  
         C57       1.0000    0.93530   0.73590   0.11680   Biso      1.000     C          -0.3017   
         C58       1.0000    0.81470   0.03630   0.54310   Biso      1.000     C          -0.245033           
         C59       1.0000    0.59670   0.66410   0.41080   Biso      1.000     C          -0.210654           
         C60       1.0000    0.82350   0.97440   0.58220   Biso      1.000     C          0.275936  
         C61       1.0000    0.52090   0.65190   0.44450   Biso      1.000     C          -0.00742  
         C62       1.0000    0.43270   0.70960   0.43630   Biso      1.000     C          0.617836  
         C63       1.0000    0.53170   0.59070   0.48630   Biso      1.000     C          -0.155568           
         C64       1.0000    0.65990   0.98750   0.60520   Biso      1.000     C          -0.06416  
         C65       1.0000    0.61190   0.53890   0.49160   Biso      1.000     C          0.009752  
         C66       1.0000    0.62150   0.47530   0.53510   Biso      1.000     C          0.58966   
         C67       1.0000    0.68730   0.54780   0.45770   Biso      1.000     C          -0.234314           
         C68       1.0000    0.50860   0.89920   0.61350   Biso      1.000     C          -0.173631           
         C69       1.0000    0.67850   0.61240   0.41840   Biso      1.000     C          0.271049  
         C70       1.0000    0.84170   0.59080   0.39530   Biso      1.000     C          -0.068082           
         C71       1.0000    0.59100   0.93010   0.63530   Biso      1.000     C          0.12125   
         C72       1.0000    0.61420   0.90650   0.68780   Biso      1.000     C          -0.20781  
         C73       1.0000    0.55520   0.85130   0.71620   Biso      1.000     C          0.111496  
         C74       1.0000    0.46840   0.82350   0.69270   Biso      1.000     C          -0.175046           
         C75       1.0000    0.02180   0.43350   0.44230   Biso      1.000     C          0.000527  
         C76       1.0000    0.87400   0.11350   0.46460   Biso      1.000     C          0.593443  
         C77       1.0000    0.06370   0.85450   0.07700   Biso      1.000     C          0.029945  
         C78       1.0000    0.99780   0.78060   0.14940   Biso      1.000     C          0.283639  
         C79       1.0000    0.03130   0.49540   0.48400   Biso      1.000     C          -0.156217           
         C80       1.0000    0.12600   0.61350   0.53540   Biso      1.000     C          0.593443  
         C81       1.0000    0.11290   0.54940   0.49110   Biso      1.000     C          0.005844  
         C82       1.0000    0.90590   0.92480   0.58920   Biso      1.000     C          -0.203522           
         C83       1.0000    0.18530   0.53630   0.45690   Biso      1.000     C          -0.245033           
         C84       1.0000    0.17650   0.47440   0.41780   Biso      1.000     C          0.275937  
         C85       1.0000    0.90950   0.64340   0.36330   Biso      1.000     C          0.12224   
         C86       1.0000    0.99310   0.68110   0.38660   Biso      1.000     C          -0.180622           
         C87       1.0000    0.34010   0.48750   0.39480   Biso      1.000     C          -0.064158           
         C88       1.0000    0.06670   0.87420   0.56390   Biso      1.000     C          0.613704  
         C89       1.0000    0.06070   0.84580   0.12840   Biso      1.000     C          -0.21628  
         C90       1.0000    0.56900   0.78920   0.87860   Biso      1.000     C          -0.243996           
         C91       1.0000    0.40900   0.43010   0.36470   Biso      1.000     C          0.121235  
         C92       1.0000    0.94060   0.70330   0.22380   Biso      1.000     C          -0.05889  
         C93       1.0000    0.38580   0.40650   0.31220   Biso      1.000     C          -0.207808           
         C94       1.0000    0.44480   0.35130   0.28380   Biso      1.000     C          0.111496  
         C95       1.0000    0.97820   0.93350   0.55770   Biso      1.000     C          0.000527  
         C96       1.0000    0.53160   0.32350   0.30730   Biso      1.000     C          -0.175055           
         C97       1.0000    0.55430   0.34660   0.35740   Biso      1.000     C          -0.004037           
         C98       1.0000    0.64500   0.31570   0.38290   Biso      1.000     C          0.617413  
         C99       1.0000    0.96870   0.99540   0.51600   Biso      1.000     C          -0.156218           
         C100      1.0000    0.49140   0.39920   0.38650   Biso      1.000     C          -0.173615           
         Cd1       1.0000    0.75331   0.55431   0.98147   Biso      1.000     Cd          0.989798  
         Cd2       1.0000    0.67175   0.66586   0.08857   Biso      1.000     Cd          0.912023  
         Cd3       1.0000    0.16287   0.70975   0.62415   Biso      1.000     Cd          1.054381  
         Cd4       1.0000    0.33675   0.87456   0.37526   Biso      1.000     Cd          1.062768  
         Cd5       1.0000    0.25017   0.79244   0.49974   Biso      1.000     Cd          1.117839  
         Cd6       1.0000    0.83713   0.20975   0.37585   Biso      1.000     Cd          1.05438   
         Cd7       1.0000    0.74983   0.29244   0.50026   Biso      1.000     Cd          1.117839  
         Cd8       1.0000    0.66325   0.37456   0.62474   Biso      1.000     Cd          1.062768  
         Cd9       1.0000    0.24669   0.05431   0.01853   Biso      1.000     Cd          0.989798  
         Cd10      1.0000    0.32825   0.16586   0.91143   Biso      1.000     Cd          0.912019  
         H1        1.0000    0.50230   0.82630   0.99410   Biso      1.000     H          0.117368  
         H2        1.0000    0.42630   0.78900   0.71150   Biso      1.000     H          0.126626  
         H3        1.0000    0.67010   0.92850   0.70340   Biso      1.000     H          0.12573   
         H4        1.0000    0.74120   0.51150   0.46170   Biso      1.000     H          0.140064  
         H5        1.0000    0.49320   0.91280   0.57900   Biso      1.000     H          0.122807  
         H6        1.0000    0.48450   0.58540   0.51020   Biso      1.000     H          0.135982  
         H7        1.0000    0.64490   0.98290   0.56830   Biso      1.000     H          0.102975  
         H8        1.0000    0.65570   0.05170   0.61530   Biso      1.000     H          0.101187  
         H9        1.0000    0.59160   0.70640   0.38380   Biso      1.000     H          0.145878  
         H10       1.0000    0.88810   0.69970   0.13050   Biso      1.000     H          0.099375  
         H11       1.0000    0.75930   0.07060   0.53900   Biso      1.000     H          0.131237  
         H12       1.0000    0.00570   0.80980   0.00870   Biso      1.000     H          0.12936   
         H13       1.0000    0.09930   0.88190   0.15010   Biso      1.000     H          0.147637  
         H14       1.0000    0.87500   0.71860   0.21560   Biso      1.000     H          0.09141   
         H15       1.0000    0.01720   0.00080   0.49290   Biso      1.000     H          0.128235  
         H16       1.0000    0.95330   0.64290   0.20950   Biso      1.000     H          0.110927  
         H17       1.0000    0.00460   0.67370   0.42200   Biso      1.000     H          0.117682  
         H18       1.0000    0.84210   0.62860   0.29450   Biso      1.000     H          0.121542  
         H19       1.0000    0.91160   0.88390   0.61690   Biso      1.000     H          0.137152  
         H20       1.0000    0.08940   0.75960   0.28560   Biso      1.000     H          0.122652  
         H21       1.0000    0.57150   0.76120   0.77550   Biso      1.000     H          0.09129   
         H22       1.0000    0.43240   0.96320   0.86400   Biso      1.000     H          0.118367  
         H23       1.0000    0.60660   0.75070   0.85930   Biso      1.000     H          0.134974  
         H24       1.0000    0.64390   0.84340   0.77920   Biso      1.000     H          0.094029  
         H25       1.0000    0.14060   0.09600   0.56810   Biso      1.000     H          0.106605  
         H26       1.0000    0.42850   0.26120   0.22450   Biso      1.000     H          0.091289  
         H27       1.0000    0.40840   0.20640   0.61620   Biso      1.000     H          0.145878  
         H28       1.0000    0.11190   0.19970   0.86950   Biso      1.000     H          0.099374  
         H29       1.0000    0.99430   0.30980   0.99130   Biso      1.000     H          0.129357  
         H30       1.0000    0.90070   0.38190   0.84990   Biso      1.000     H          0.147637  
         H31       1.0000    0.12500   0.21860   0.78440   Biso      1.000     H          0.09141   
         H32       1.0000    0.04670   0.14290   0.79050   Biso      1.000     H          0.110928  
         H33       1.0000    0.99540   0.17370   0.57800   Biso      1.000     H          0.117682  
         H34       1.0000    0.15790   0.12860   0.70550   Biso      1.000     H          0.121543  
         H35       1.0000    0.91060   0.25960   0.71440   Biso      1.000     H          0.122652  
         H36       1.0000    0.35610   0.34340   0.22080   Biso      1.000     H          0.094029  
         H37       1.0000    0.56760   0.46320   0.13600   Biso      1.000     H          0.118367  
         H38       1.0000    0.49770   0.32630   0.00590   Biso      1.000     H          0.117369  
         H39       1.0000    0.39340   0.25070   0.14070   Biso      1.000     H          0.134974  
         H40       1.0000    0.08840   0.38390   0.38310   Biso      1.000     H          0.137152  
         H41       1.0000    0.98280   0.50080   0.50710   Biso      1.000     H          0.128235  
         H42       1.0000    0.24070   0.57060   0.46100   Biso      1.000     H          0.131237  
         H43       1.0000    0.34430   0.55170   0.38470   Biso      1.000     H          0.101186  
         H44       1.0000    0.35510   0.48290   0.43170   Biso      1.000     H          0.102974  
         H45       1.0000    0.50680   0.41280   0.42100   Biso      1.000     H          0.122805  
         H46       1.0000    0.32990   0.42850   0.29660   Biso      1.000     H          0.125729  
         H47       1.0000    0.57370   0.28900   0.28850   Biso      1.000     H          0.126627  
         H48       1.0000    0.51550   0.08540   0.48980   Biso      1.000     H          0.135982  
         H49       1.0000    0.25880   0.01150   0.53830   Biso      1.000     H          0.140063  
         H50       1.0000    0.85940   0.59600   0.43190   Biso      1.000     H          0.106605  
         H51       1.0000    0.84120   0.52620   0.38580   Biso      1.000     H          0.105907  
         H52       1.0000    0.15880   0.02620   0.61420   Biso      1.000     H          0.105907  
         O1        1.0000    0.65530   0.32590   0.43150   Biso      1.000     O          -0.57147  
         O2        1.0000    0.48110   0.37430   0.19840   Biso      1.000     O          -0.21332  
         O3        1.0000    0.24640   0.45320   0.38350   Biso      1.000     O          -0.215169           
         O4        1.0000    0.30230   0.92140   0.45890   Biso      1.000     O          -0.632314           
         O5        1.0000    0.43670   0.97200   0.42940   Biso      1.000     O          -0.524354           
         O6        1.0000    0.62720   0.20700   0.52980   Biso      1.000     O          -0.576933           
         O7        1.0000    0.57100   0.25800   0.60370   Biso      1.000     O          -0.600818           
         O8        1.0000    0.18550   0.13900   0.94950   Biso      1.000     O          -0.585946           
         O9        1.0000    0.10910   0.18090   0.01670   Biso      1.000     O          -0.454953           
         O10       1.0000    0.86510   0.43650   0.99360   Biso      1.000     O          -0.517527           
         O11       1.0000    0.70540   0.27820   0.35420   Biso      1.000     O          -0.591522           
         O12       1.0000    0.81880   0.47420   0.91350   Biso      1.000     O          -0.523757           
         O13       1.0000    0.84570   0.26040   0.56950   Biso      1.000     O          -0.544536           
         O14       1.0000    0.66790   0.51640   0.06020   Biso      1.000     O          -0.594201           
         O15       1.0000    0.62380   0.44670   0.98920   Biso      1.000     O          -0.490009           
         O16       1.0000    0.38150   0.20280   0.99290   Biso      1.000     O          -0.614953           
         O17       1.0000    0.33020   0.15270   0.06670   Biso      1.000     O          -0.504222           
         O18       1.0000    0.92690   0.32940   0.39560   Biso      1.000     O          -0.583443           
         O19       1.0000    0.87330   0.37870   0.47110   Biso      1.000     O          -0.588798           
         O20       1.0000    0.06250   0.61560   0.56890   Biso      1.000     O          -0.53827  
         O21       1.0000    0.20000   0.65970   0.53980   Biso      1.000     O          -0.587208           
         O22       1.0000    0.99770   0.27170   0.79880   Biso      1.000     O          -0.177582           
         O23       1.0000    0.79730   0.30270   0.64550   Biso      1.000     O          -0.599981           
         O24       1.0000    0.25090   0.13240   0.61550   Biso      1.000     O          -0.219245           
         O25       1.0000    0.75360   0.95320   0.61650   Biso      1.000     O          -0.215168           
         O26       1.0000    0.29460   0.77820   0.64580   Biso      1.000     O          -0.591522           
         O27       1.0000    0.34470   0.82590   0.56850   Biso      1.000     O          -0.57147  
         O28       1.0000    0.80000   0.15970   0.46020   Biso      1.000     O          -0.587208           
         O29       1.0000    0.93750   0.11560   0.43110   Biso      1.000     O          -0.53827  
         O30       1.0000    0.12670   0.87870   0.52890   Biso      1.000     O          -0.588798           
         O31       1.0000    0.07310   0.82940   0.60440   Biso      1.000     O          -0.583443           
         O32       1.0000    0.66980   0.65270   0.93330   Biso      1.000     O          -0.504222           
         O33       1.0000    0.61850   0.70280   0.00710   Biso      1.000     O          -0.614954           
         O34       1.0000    0.37620   0.94670   0.01080   Biso      1.000     O          -0.49001  
         O35       1.0000    0.33210   0.01640   0.93980   Biso      1.000     O          -0.594201           
         O36       1.0000    0.15430   0.76040   0.43050   Biso      1.000     O          -0.544536           
         O37       1.0000    0.74910   0.63240   0.38450   Biso      1.000     O          -0.219246           
         O38       1.0000    0.20270   0.80270   0.35450   Biso      1.000     O          -0.599981           
         O39       1.0000    0.18120   0.97420   0.08650   Biso      1.000     O          -0.523757           
         O40       1.0000    0.13490   0.93650   0.00640   Biso      1.000     O          -0.517526           
         O41       1.0000    0.89090   0.68090   0.98330   Biso      1.000     O          -0.454951           
         O42       1.0000    0.81450   0.63900   0.05050   Biso      1.000     O          -0.585945           
         O43       1.0000    0.42900   0.75800   0.39630   Biso      1.000     O          -0.600818           
         O44       1.0000    0.37280   0.70700   0.47020   Biso      1.000     O          -0.576932           
         O45       1.0000    0.56330   0.47200   0.57060   Biso      1.000     O          -0.524354           
         O46       1.0000    0.69770   0.42140   0.54110   Biso      1.000     O          -0.632314           
         O47       1.0000    0.51890   0.87430   0.80160   Biso      1.000     O          -0.21332  
         O48       1.0000    0.00230   0.77170   0.20120   Biso      1.000     O          -0.177582 