
##########################################################################
#               Crystallographic Information Format file
#               Produced by PyCifRW module
#
#  This is a CIF file.  CIF has been adopted by the International
#  Union of Crystallography as the standard for data archiving and
#  transmission.
#
#  For information on this file format, follow the CIF links at
#  http://www.iucr.org
##########################################################################

data_image0

_cell_length_a                          5.552
_cell_length_b                          13.3686
_cell_length_c                          20.797
_cell_angle_alpha                       90
_cell_angle_beta                        95.577
_cell_angle_gamma                       90
_symmetry_space_group_name_H-M          'P 1'
_symmetry_int_tables_number             1
loop_
  _symmetry_equiv_pos_as_xyz
         'x, y, z' 
loop_
  _atom_site_label
  _atom_site_occupancy
  _atom_site_fract_x
  _atom_site_fract_y
  _atom_site_fract_z
  _atom_site_thermal_displace_type
  _atom_site_B_iso_or_equiv
  _atom_site_type_symbol
  _atom_site_charge
         C1        1.0000    0.60040   0.10940   0.33490   Biso      1.000     C          -0.227623           
         C2        1.0000    0.17040   0.76420   0.12510   Biso      1.000     C          0.589973  
         C3        1.0000    0.30780   0.03770   0.16720   Biso      1.000     C          -0.437469           
         C4        1.0000    0.52910   0.19220   0.20120   Biso      1.000     C          -0.131963           
         C5        1.0000    0.72170   0.23560   0.25360   Biso      1.000     C          -0.229214           
         C6        1.0000    0.63850   0.22300   0.32210   Biso      1.000     C          -0.120772           
         C7        1.0000    0.36150   0.72300   0.17790   Biso      1.000     C          -0.120775           
         C8        1.0000    0.40310   0.06820   0.28250   Biso      1.000     C          -0.121159           
         C9        1.0000    0.82960   0.26420   0.37490   Biso      1.000     C          0.589972  
         C10       1.0000    0.30780   0.46230   0.66720   Biso      1.000     C          -0.437468           
         C11       1.0000    0.52910   0.30780   0.70120   Biso      1.000     C          -0.131967           
         C12       1.0000    0.72170   0.26440   0.75360   Biso      1.000     C          -0.229212           
         C13       1.0000    0.63850   0.27700   0.82210   Biso      1.000     C          -0.120775           
         C14       1.0000    0.60040   0.39060   0.83490   Biso      1.000     C          -0.227623           
         C15       1.0000    0.40310   0.43180   0.78250   Biso      1.000     C          -0.121162           
         C16       1.0000    0.82960   0.23580   0.87490   Biso      1.000     C          0.58997   
         C17       1.0000    0.69220   0.96230   0.83280   Biso      1.000     C          -0.437468           
         C18       1.0000    0.47090   0.80780   0.79880   Biso      1.000     C          -0.131962           
         C19       1.0000    0.27830   0.76440   0.74640   Biso      1.000     C          -0.229214           
         C20       1.0000    0.36150   0.77700   0.67790   Biso      1.000     C          -0.120772           
         C21       1.0000    0.39960   0.89060   0.66510   Biso      1.000     C          -0.227623           
         C22       1.0000    0.59690   0.93180   0.71750   Biso      1.000     C          -0.121158           
         C23       1.0000    0.17040   0.73580   0.62510   Biso      1.000     C          0.589968  
         C24       1.0000    0.27830   0.73560   0.24640   Biso      1.000     C          -0.229213           
         C25       1.0000    0.47090   0.69220   0.29880   Biso      1.000     C          -0.131968           
         C26       1.0000    0.69220   0.53770   0.33280   Biso      1.000     C          -0.437469           
         C27       1.0000    0.59690   0.56820   0.21750   Biso      1.000     C          -0.121162           
         C28       1.0000    0.39960   0.60940   0.16510   Biso      1.000     C          -0.227624           
         Eu1       1.0000    0.87235   0.63267   0.52782   Biso      1.000     Eu          1.433832  
         Eu2       1.0000    0.87235   0.86733   0.02782   Biso      1.000     Eu          1.433833  
         Eu3       1.0000    0.12765   0.36733   0.47218   Biso      1.000     Eu          1.433831  
         Eu4       1.0000    0.12765   0.13267   0.97218   Biso      1.000     Eu          1.433832  
         H1        1.0000    0.62540   0.00220   0.70990   Biso      1.000     H          0.113752  
         H2        1.0000    0.24870   0.92650   0.66740   Biso      1.000     H          0.111716  
         H3        1.0000    0.45160   0.90010   0.62240   Biso      1.000     H          0.124422  
         H4        1.0000    0.51480   0.74150   0.67550   Biso      1.000     H          0.112731  
         H5        1.0000    0.25340   0.69400   0.75480   Biso      1.000     H          0.113817  
         H6        1.0000    0.12540   0.79870   0.74860   Biso      1.000     H          0.099739  
         H7        1.0000    0.41450   0.80120   0.84130   Biso      1.000     H          0.127713  
         H8        1.0000    0.62190   0.77140   0.79860   Biso      1.000     H          0.109744  
         H9        1.0000    0.74040   0.02700   0.81730   Biso      1.000     H          0.162592  
         H10       1.0000    0.74790   0.89600   0.71520   Biso      1.000     H          0.10516   
         H11       1.0000    0.25210   0.39600   0.78480   Biso      1.000     H          0.105162  
         H12       1.0000    0.37810   0.22860   0.20140   Biso      1.000     H          0.109745  
         H13       1.0000    0.25960   0.97300   0.18270   Biso      1.000     H          0.162593  
         H14       1.0000    0.16550   0.08010   0.16330   Biso      1.000     H          0.159837  
         H15       1.0000    0.74790   0.60400   0.21520   Biso      1.000     H          0.105162  
         H16       1.0000    0.62540   0.49780   0.20990   Biso      1.000     H          0.113752  
         H17       1.0000    0.24870   0.57350   0.16740   Biso      1.000     H          0.111717  
         H18       1.0000    0.58550   0.19880   0.15870   Biso      1.000     H          0.127714  
         H19       1.0000    0.45160   0.59990   0.12240   Biso      1.000     H          0.124423  
         H20       1.0000    0.25340   0.80600   0.25480   Biso      1.000     H          0.113817  
         H21       1.0000    0.12540   0.70130   0.24860   Biso      1.000     H          0.09974   
         H22       1.0000    0.83450   0.91990   0.83670   Biso      1.000     H          0.159835  
         H23       1.0000    0.62190   0.72860   0.29860   Biso      1.000     H          0.109747  
         H24       1.0000    0.74040   0.47300   0.31730   Biso      1.000     H          0.162591  
         H25       1.0000    0.83450   0.58010   0.33670   Biso      1.000     H          0.159838  
         H26       1.0000    0.51480   0.75850   0.17550   Biso      1.000     H          0.112732  
         H27       1.0000    0.87460   0.20130   0.25140   Biso      1.000     H          0.09974   
         H28       1.0000    0.41450   0.69880   0.34130   Biso      1.000     H          0.127715  
         H29       1.0000    0.48520   0.25850   0.32450   Biso      1.000     H          0.112731  
         H30       1.0000    0.37460   0.50220   0.79010   Biso      1.000     H          0.11375   
         H31       1.0000    0.75130   0.42650   0.83260   Biso      1.000     H          0.111716  
         H32       1.0000    0.54840   0.40010   0.87760   Biso      1.000     H          0.124422  
         H33       1.0000    0.48520   0.24150   0.82450   Biso      1.000     H          0.112731  
         H34       1.0000    0.74660   0.19400   0.74520   Biso      1.000     H          0.113817  
         H35       1.0000    0.87460   0.29870   0.75140   Biso      1.000     H          0.09974   
         H36       1.0000    0.74660   0.30600   0.24520   Biso      1.000     H          0.113818  
         H37       1.0000    0.58550   0.30120   0.65870   Biso      1.000     H          0.127713  
         H38       1.0000    0.25960   0.52700   0.68270   Biso      1.000     H          0.162589  
         H39       1.0000    0.16550   0.41990   0.66330   Biso      1.000     H          0.159838  
         H40       1.0000    0.25210   0.10400   0.28480   Biso      1.000     H          0.10516   
         H41       1.0000    0.37460   0.99780   0.29010   Biso      1.000     H          0.113752  
         H42       1.0000    0.75130   0.07350   0.33260   Biso      1.000     H          0.111716  
         H43       1.0000    0.54840   0.09990   0.37760   Biso      1.000     H          0.124423  
         H44       1.0000    0.37810   0.27140   0.70140   Biso      1.000     H          0.109746  
         N1        1.0000    0.50950   0.91780   0.78340   Biso      1.000     N          0.062501  
         N2        1.0000    0.49050   0.41780   0.71660   Biso      1.000     N          0.062521  
         N3        1.0000    0.50950   0.58220   0.28340   Biso      1.000     N          0.062517  
         N4        1.0000    0.49050   0.08220   0.21660   Biso      1.000     N          0.062505  
         O1        1.0000    0.62400   0.95020   0.09090   Biso      1.000     O          -0.716127           
         O2        1.0000    0.37600   0.04980   0.90910   Biso      1.000     O          -0.716125           
         O3        1.0000    0.82240   0.01860   0.95430   Biso      1.000     O          -0.802479           
         O4        1.0000    0.54080   0.87700   0.94440   Biso      1.000     O          -0.760542           
         O5        1.0000    0.80220   0.25120   0.93260   Biso      1.000     O          -0.581635           
         O6        1.0000    0.99800   0.18080   0.85910   Biso      1.000     O          -0.58107  
         O7        1.0000    0.62400   0.54980   0.59090   Biso      1.000     O          -0.716125           
         O8        1.0000    0.17760   0.51860   0.54570   Biso      1.000     O          -0.802483           
         O9        1.0000    0.45920   0.37700   0.55560   Biso      1.000     O          -0.760547           
         O10       1.0000    0.80220   0.24880   0.43260   Biso      1.000     O          -0.581634           
         O11       1.0000    0.99800   0.31920   0.35910   Biso      1.000     O          -0.581075           
         O12       1.0000    0.19780   0.75120   0.56740   Biso      1.000     O          -0.581629           
         O13       1.0000    0.17760   0.98140   0.04570   Biso      1.000     O          -0.802482           
         O14       1.0000    0.45920   0.12300   0.05560   Biso      1.000     O          -0.760548           
         O15       1.0000    0.19780   0.74880   0.06740   Biso      1.000     O          -0.581638           
         O16       1.0000    0.00200   0.81920   0.14090   Biso      1.000     O          -0.581072           
         O17       1.0000    0.37600   0.45020   0.40910   Biso      1.000     O          -0.716126           
         O18       1.0000    0.82240   0.48140   0.45430   Biso      1.000     O          -0.802485           
         O19       1.0000    0.54080   0.62300   0.44440   Biso      1.000     O          -0.76055  
         O20       1.0000    0.00200   0.68080   0.64090   Biso      1.000     O          -0.581069           
         P1        1.0000    0.58990   0.97912   0.91395   Biso      1.000     P          1.282519  
         P2        1.0000    0.41010   0.47912   0.58605   Biso      1.000     P          1.282524  
         P3        1.0000    0.58990   0.52088   0.41395   Biso      1.000     P          1.282526  
         P4        1.0000    0.41010   0.02088   0.08605   Biso      1.000     P          1.282524 