
##########################################################################
#               Crystallographic Information Format file
#               Produced by PyCifRW module
#
#  This is a CIF file.  CIF has been adopted by the International
#  Union of Crystallography as the standard for data archiving and
#  transmission.
#
#  For information on this file format, follow the CIF links at
#  http://www.iucr.org
##########################################################################

data_image0

_cell_length_a                          5.5294
_cell_length_b                          13.3523
_cell_length_c                          20.642
_cell_angle_alpha                       90
_cell_angle_beta                        95.378
_cell_angle_gamma                       90
_symmetry_space_group_name_H-M          'P 1'
_symmetry_int_tables_number             1
loop_
  _symmetry_equiv_pos_as_xyz
         'x, y, z' 
loop_
  _atom_site_label
  _atom_site_occupancy
  _atom_site_fract_x
  _atom_site_fract_y
  _atom_site_fract_z
  _atom_site_thermal_displace_type
  _atom_site_B_iso_or_equiv
  _atom_site_type_symbol
  _atom_site_charge
         C1        1.0000    0.72170   0.23560   0.25360   Biso      1.000     C          -0.224663           
         C2        1.0000    0.69220   0.53770   0.33280   Biso      1.000     C          -0.426883           
         C3        1.0000    0.47090   0.69220   0.29880   Biso      1.000     C          -0.115825           
         C4        1.0000    0.27830   0.73560   0.24640   Biso      1.000     C          -0.224662           
         C5        1.0000    0.36150   0.72300   0.17790   Biso      1.000     C          -0.113197           
         C6        1.0000    0.39960   0.60940   0.16510   Biso      1.000     C          -0.22223600000000002          
         C7        1.0000    0.59690   0.56820   0.21750   Biso      1.000     C          -0.103894           
         C8        1.0000    0.17040   0.76420   0.12510   Biso      1.000     C          0.632989  
         C9        1.0000    0.30780   0.03770   0.16720   Biso      1.000     C          -0.426883           
         C10       1.0000    0.52910   0.19220   0.20120   Biso      1.000     C          -0.115824           
         C11       1.0000    0.63850   0.22300   0.32210   Biso      1.000     C          -0.113197           
         C12       1.0000    0.60040   0.10940   0.33490   Biso      1.000     C          -0.22223600000000002          
         C13       1.0000    0.40310   0.06820   0.28250   Biso      1.000     C          -0.103894           
         C14       1.0000    0.30780   0.46230   0.66720   Biso      1.000     C          -0.426883           
         C15       1.0000    0.82960   0.26420   0.37490   Biso      1.000     C          0.632989  
         C16       1.0000    0.47090   0.80780   0.79880   Biso      1.000     C          -0.115824           
         C17       1.0000    0.72170   0.26440   0.75360   Biso      1.000     C          -0.224662           
         C18       1.0000    0.63850   0.27700   0.82210   Biso      1.000     C          -0.113197           
         C19       1.0000    0.60040   0.39060   0.83490   Biso      1.000     C          -0.22223600000000002          
         C20       1.0000    0.40310   0.43180   0.78250   Biso      1.000     C          -0.103894           
         C21       1.0000    0.82960   0.23580   0.87490   Biso      1.000     C          0.632989  
         C22       1.0000    0.69220   0.96230   0.83280   Biso      1.000     C          -0.426883           
         C23       1.0000    0.52910   0.30780   0.70120   Biso      1.000     C          -0.115824           
         C24       1.0000    0.27830   0.76440   0.74640   Biso      1.000     C          -0.224662           
         C25       1.0000    0.36150   0.77700   0.67790   Biso      1.000     C          -0.113197           
         C26       1.0000    0.39960   0.89060   0.66510   Biso      1.000     C          -0.22223600000000002          
         C27       1.0000    0.59690   0.93180   0.71750   Biso      1.000     C          -0.103894           
         C28       1.0000    0.17040   0.73580   0.62510   Biso      1.000     C          0.632989  
         H1        1.0000    0.62260   0.77140   0.79840   Biso      1.000     H          0.081438  
         H2        1.0000    0.12480   0.79870   0.74880   Biso      1.000     H          0.09889099999999999           
         H3        1.0000    0.74060   0.02710   0.81710   Biso      1.000     H          0.164494  
         H4        1.0000    0.25350   0.69390   0.75490   Biso      1.000     H          0.10964000000000002           
         H5        1.0000    0.74850   0.89610   0.71510   Biso      1.000     H          0.07839   
         H6        1.0000    0.45170   0.90020   0.62200   Biso      1.000     H          0.110971  
         H7        1.0000    0.24810   0.92640   0.66760   Biso      1.000     H          0.107625  
         H8        1.0000    0.62530   0.00230   0.70980   Biso      1.000     H          0.10360699999999999           
         H9        1.0000    0.83510   0.91980   0.83670   Biso      1.000     H          0.130822  
         H10       1.0000    0.51540   0.74150   0.67540   Biso      1.000     H          0.11246800000000001           
         H11       1.0000    0.25150   0.39610   0.78490   Biso      1.000     H          0.078389  
         H12       1.0000    0.41440   0.80110   0.84170   Biso      1.000     H          0.11478800000000002           
         H13       1.0000    0.75190   0.42640   0.83240   Biso      1.000     H          0.107625  
         H14       1.0000    0.37740   0.22860   0.20160   Biso      1.000     H          0.081438  
         H15       1.0000    0.25940   0.97290   0.18290   Biso      1.000     H          0.164494  
         H16       1.0000    0.16490   0.08020   0.16330   Biso      1.000     H          0.130821  
         H17       1.0000    0.74850   0.60390   0.21510   Biso      1.000     H          0.078389  
         H18       1.0000    0.62530   0.49770   0.20980   Biso      1.000     H          0.10360699999999999           
         H19       1.0000    0.37470   0.50230   0.79020   Biso      1.000     H          0.10360699999999999           
         H20       1.0000    0.58560   0.19890   0.15830   Biso      1.000     H          0.11478699999999999           
         H21       1.0000    0.45170   0.59980   0.12200   Biso      1.000     H          0.110971  
         H22       1.0000    0.25350   0.80610   0.25490   Biso      1.000     H          0.10964000000000002           
         H23       1.0000    0.12480   0.70130   0.24880   Biso      1.000     H          0.09889099999999999           
         H24       1.0000    0.41440   0.69890   0.34170   Biso      1.000     H          0.11478800000000002           
         H25       1.0000    0.62260   0.72860   0.29840   Biso      1.000     H          0.081439  
         H26       1.0000    0.74060   0.47290   0.31710   Biso      1.000     H          0.164494  
         H27       1.0000    0.83510   0.58020   0.33670   Biso      1.000     H          0.130822  
         H28       1.0000    0.51540   0.75850   0.17540   Biso      1.000     H          0.11246800000000001           
         H29       1.0000    0.87520   0.20130   0.25120   Biso      1.000     H          0.09889099999999999           
         H30       1.0000    0.24810   0.57360   0.16760   Biso      1.000     H          0.107625  
         H31       1.0000    0.48460   0.25850   0.32460   Biso      1.000     H          0.11246800000000001           
         H32       1.0000    0.74650   0.30610   0.24510   Biso      1.000     H          0.10964000000000002           
         H33       1.0000    0.54830   0.40020   0.87800   Biso      1.000     H          0.110971  
         H34       1.0000    0.48460   0.24150   0.82460   Biso      1.000     H          0.11246800000000001           
         H35       1.0000    0.74650   0.19390   0.74510   Biso      1.000     H          0.10964000000000002           
         H36       1.0000    0.58560   0.30110   0.65830   Biso      1.000     H          0.11478800000000002           
         H37       1.0000    0.37740   0.27140   0.70160   Biso      1.000     H          0.081439  
         H38       1.0000    0.87520   0.29870   0.75120   Biso      1.000     H          0.09889099999999999           
         H39       1.0000    0.16490   0.41980   0.66330   Biso      1.000     H          0.130822  
         H40       1.0000    0.25150   0.10390   0.28490   Biso      1.000     H          0.07839   
         H41       1.0000    0.37470   0.99770   0.29020   Biso      1.000     H          0.10360699999999999           
         H42       1.0000    0.75190   0.07360   0.33240   Biso      1.000     H          0.107625  
         H43       1.0000    0.54830   0.09980   0.37800   Biso      1.000     H          0.110971  
         H44       1.0000    0.25940   0.52710   0.68290   Biso      1.000     H          0.164494  
         N1        1.0000    0.49050   0.08220   0.21660   Biso      1.000     N          -0.107128           
         N2        1.0000    0.50950   0.91780   0.78340   Biso      1.000     N          -0.107128           
         N3        1.0000    0.49050   0.41780   0.71660   Biso      1.000     N          -0.107128           
         N4        1.0000    0.50950   0.58220   0.28340   Biso      1.000     N          -0.107128           
         O1        1.0000    0.99800   0.31920   0.35910   Biso      1.000     O          -0.637081           
         O2        1.0000    0.62400   0.95020   0.09086   Biso      1.000     O          -0.835959           
         O3        1.0000    0.80220   0.24880   0.43260   Biso      1.000     O          -0.710485           
         O4        1.0000    0.17760   0.51860   0.54570   Biso      1.000     O          -0.9791690000000001           
         O5        1.0000    0.82240   0.01860   0.95430   Biso      1.000     O          -0.9791690000000001           
         O6        1.0000    0.54080   0.87700   0.94440   Biso      1.000     O          -0.903574           
         O7        1.0000    0.80220   0.25120   0.93260   Biso      1.000     O          -0.710485           
         O8        1.0000    0.99800   0.18080   0.85910   Biso      1.000     O          -0.637081           
         O9        1.0000    0.62400   0.54980   0.59086   Biso      1.000     O          -0.835959           
         O10       1.0000    0.17760   0.98140   0.04570   Biso      1.000     O          -0.9791690000000001           
         O11       1.0000    0.45920   0.37700   0.55560   Biso      1.000     O          -0.903574           
         O12       1.0000    0.37600   0.04980   0.90914   Biso      1.000     O          -0.835959           
         O13       1.0000    0.45920   0.12300   0.05560   Biso      1.000     O          -0.903574           
         O14       1.0000    0.19780   0.75120   0.56740   Biso      1.000     O          -0.710485           
         O15       1.0000    0.00200   0.81920   0.14090   Biso      1.000     O          -0.637081           
         O16       1.0000    0.37600   0.45020   0.40914   Biso      1.000     O          -0.835959           
         O17       1.0000    0.82240   0.48140   0.45430   Biso      1.000     O          -0.9791690000000001           
         O18       1.0000    0.54080   0.62300   0.44440   Biso      1.000     O          -0.903574           
         O19       1.0000    0.00200   0.68080   0.64090   Biso      1.000     O          -0.637081           
         O20       1.0000    0.19780   0.74880   0.06740   Biso      1.000     O          -0.710485           
         P1        1.0000    0.58990   0.97912   0.91395   Biso      1.000     P          1.402902  
         P2        1.0000    0.41010   0.47912   0.58605   Biso      1.000     P          1.402902  
         P3        1.0000    0.41010   0.02088   0.08605   Biso      1.000     P          1.402902  
         P4        1.0000    0.58990   0.52088   0.41395   Biso      1.000     P          1.402902  
         Tb1       1.0000    0.87235   0.86733   0.02782   Biso      1.000     Tb          2.131068  
         Tb2       1.0000    0.12765   0.36733   0.47218   Biso      1.000     Tb          2.131068  
         Tb3       1.0000    0.12765   0.13267   0.97218   Biso      1.000     Tb          2.131068  
         Tb4       1.0000    0.87235   0.63267   0.52782   Biso      1.000     Tb          2.131068 