
##########################################################################
#               Crystallographic Information Format file
#               Produced by PyCifRW module
#
#  This is a CIF file.  CIF has been adopted by the International
#  Union of Crystallography as the standard for data archiving and
#  transmission.
#
#  For information on this file format, follow the CIF links at
#  http://www.iucr.org
##########################################################################

data_image0

_cell_length_a                          5.5286
_cell_length_b                          13.314
_cell_length_c                          20.599
_cell_angle_alpha                       90
_cell_angle_beta                        95.244
_cell_angle_gamma                       90
_symmetry_space_group_name_H-M          'P 1'
_symmetry_int_tables_number             1
loop_
  _symmetry_equiv_pos_as_xyz
         'x, y, z' 
loop_
  _atom_site_label
  _atom_site_occupancy
  _atom_site_fract_x
  _atom_site_fract_y
  _atom_site_fract_z
  _atom_site_thermal_displace_type
  _atom_site_B_iso_or_equiv
  _atom_site_type_symbol
  _atom_site_charge
         C1        1.0000    0.60000   0.10940   0.33490   Biso      1.000     C          -0.222084           
         C2        1.0000    0.17040   0.76420   0.12510   Biso      1.000     C          0.635099  
         C3        1.0000    0.30780   0.03770   0.16720   Biso      1.000     C          -0.428988           
         C4        1.0000    0.52900   0.19220   0.20120   Biso      1.000     C          -0.116608           
         C5        1.0000    0.72200   0.23560   0.25360   Biso      1.000     C          -0.225548           
         C6        1.0000    0.63900   0.22300   0.32210   Biso      1.000     C          -0.111397           
         C7        1.0000    0.36100   0.72300   0.17790   Biso      1.000     C          -0.111398           
         C8        1.0000    0.40300   0.06820   0.28250   Biso      1.000     C          -0.104144           
         C9        1.0000    0.82960   0.26420   0.37490   Biso      1.000     C          0.635099  
         C10       1.0000    0.30780   0.46230   0.66720   Biso      1.000     C          -0.428988           
         C11       1.0000    0.52900   0.30780   0.70120   Biso      1.000     C          -0.116609           
         C12       1.0000    0.72200   0.26440   0.75360   Biso      1.000     C          -0.225548           
         C13       1.0000    0.63900   0.27700   0.82210   Biso      1.000     C          -0.111398           
         C14       1.0000    0.60000   0.39060   0.83490   Biso      1.000     C          -0.222084           
         C15       1.0000    0.40300   0.43180   0.78250   Biso      1.000     C          -0.104144           
         C16       1.0000    0.82960   0.23580   0.87490   Biso      1.000     C          0.635099  
         C17       1.0000    0.69220   0.96230   0.83280   Biso      1.000     C          -0.428988           
         C18       1.0000    0.47100   0.80780   0.79880   Biso      1.000     C          -0.116609           
         C19       1.0000    0.27800   0.76440   0.74640   Biso      1.000     C          -0.225548           
         C20       1.0000    0.36100   0.77700   0.67790   Biso      1.000     C          -0.111398           
         C21       1.0000    0.40000   0.89060   0.66510   Biso      1.000     C          -0.222084           
         C22       1.0000    0.59700   0.93180   0.71750   Biso      1.000     C          -0.104144           
         C23       1.0000    0.17040   0.73580   0.62510   Biso      1.000     C          0.635099  
         C24       1.0000    0.27800   0.73560   0.24640   Biso      1.000     C          -0.225548           
         C25       1.0000    0.47100   0.69220   0.29880   Biso      1.000     C          -0.116608           
         C26       1.0000    0.69220   0.53770   0.33280   Biso      1.000     C          -0.428988           
         C27       1.0000    0.59700   0.56820   0.21750   Biso      1.000     C          -0.104144           
         C28       1.0000    0.40000   0.60940   0.16510   Biso      1.000     C          -0.222084           
         Dy1       1.0000    0.87235   0.63267   0.52782   Biso      1.000     Dy          2.132798  
         Dy2       1.0000    0.87235   0.86733   0.02782   Biso      1.000     Dy          2.132798  
         Dy3       1.0000    0.12765   0.36733   0.47218   Biso      1.000     Dy          2.132798  
         Dy4       1.0000    0.12765   0.13267   0.97218   Biso      1.000     Dy          2.132798  
         H1        1.0000    0.62550   0.00250   0.70980   Biso      1.000     H          0.103868  
         H2        1.0000    0.24820   0.92660   0.66770   Biso      1.000     H          0.106915  
         H3        1.0000    0.45170   0.90030   0.62190   Biso      1.000     H          0.110847  
         H4        1.0000    0.51530   0.74130   0.67530   Biso      1.000     H          0.111541  
         H5        1.0000    0.25330   0.69370   0.75490   Biso      1.000     H          0.109774  
         H6        1.0000    0.12490   0.79890   0.74880   Biso      1.000     H          0.099139  
         H7        1.0000    0.41440   0.80110   0.84180   Biso      1.000     H          0.114676  
         H8        1.0000    0.62250   0.77130   0.79830   Biso      1.000     H          0.082274  
         H9        1.0000    0.74080   0.02730   0.81710   Biso      1.000     H          0.164497  
         H10       1.0000    0.74840   0.89590   0.71500   Biso      1.000     H          0.078063  
         H11       1.0000    0.25160   0.39590   0.78500   Biso      1.000     H          0.078063  
         H12       1.0000    0.37750   0.22870   0.20170   Biso      1.000     H          0.082274  
         H13       1.0000    0.25920   0.97270   0.18290   Biso      1.000     H          0.164497  
         H14       1.0000    0.16510   0.08040   0.16340   Biso      1.000     H          0.131673  
         H15       1.0000    0.74840   0.60410   0.21500   Biso      1.000     H          0.078063  
         H16       1.0000    0.62550   0.49750   0.20980   Biso      1.000     H          0.103868  
         H17       1.0000    0.24820   0.57340   0.16770   Biso      1.000     H          0.106915  
         H18       1.0000    0.58560   0.19890   0.15820   Biso      1.000     H          0.114676  
         H19       1.0000    0.45170   0.59970   0.12190   Biso      1.000     H          0.110847  
         H20       1.0000    0.25330   0.80630   0.25490   Biso      1.000     H          0.109774  
         H21       1.0000    0.12490   0.70110   0.24880   Biso      1.000     H          0.099139  
         H22       1.0000    0.83490   0.91960   0.83660   Biso      1.000     H          0.131673  
         H23       1.0000    0.62250   0.72870   0.29830   Biso      1.000     H          0.082275  
         H24       1.0000    0.74080   0.47270   0.31710   Biso      1.000     H          0.164497  
         H25       1.0000    0.83490   0.58040   0.33660   Biso      1.000     H          0.131673  
         H26       1.0000    0.51530   0.75870   0.17530   Biso      1.000     H          0.111541  
         H27       1.0000    0.87510   0.20110   0.25120   Biso      1.000     H          0.099139  
         H28       1.0000    0.41440   0.69890   0.34180   Biso      1.000     H          0.114676  
         H29       1.0000    0.48470   0.25870   0.32470   Biso      1.000     H          0.111541  
         H30       1.0000    0.37450   0.50250   0.79020   Biso      1.000     H          0.103869  
         H31       1.0000    0.75180   0.42660   0.83230   Biso      1.000     H          0.106915  
         H32       1.0000    0.54830   0.40030   0.87810   Biso      1.000     H          0.110847  
         H33       1.0000    0.48470   0.24130   0.82470   Biso      1.000     H          0.111541  
         H34       1.0000    0.74670   0.19370   0.74510   Biso      1.000     H          0.109774  
         H35       1.0000    0.87510   0.29890   0.75120   Biso      1.000     H          0.099139  
         H36       1.0000    0.74670   0.30630   0.24510   Biso      1.000     H          0.109775  
         H37       1.0000    0.58560   0.30110   0.65820   Biso      1.000     H          0.114676  
         H38       1.0000    0.25920   0.52730   0.68290   Biso      1.000     H          0.164497  
         H39       1.0000    0.16510   0.41960   0.66340   Biso      1.000     H          0.131673  
         H40       1.0000    0.25160   0.10410   0.28500   Biso      1.000     H          0.078063  
         H41       1.0000    0.37450   0.99750   0.29020   Biso      1.000     H          0.103869  
         H42       1.0000    0.75180   0.07340   0.33230   Biso      1.000     H          0.106915  
         H43       1.0000    0.54830   0.09970   0.37810   Biso      1.000     H          0.110847  
         H44       1.0000    0.37750   0.27130   0.70170   Biso      1.000     H          0.082275  
         N1        1.0000    0.50950   0.91780   0.78340   Biso      1.000     N          -0.105522           
         N2        1.0000    0.49050   0.41780   0.71660   Biso      1.000     N          -0.105522           
         N3        1.0000    0.50950   0.58220   0.28340   Biso      1.000     N          -0.105522           
         N4        1.0000    0.49050   0.08220   0.21660   Biso      1.000     N          -0.105522           
         O1        1.0000    0.62400   0.95020   0.09090   Biso      1.000     O          -0.838616           
         O2        1.0000    0.37600   0.04980   0.90910   Biso      1.000     O          -0.838616           
         O3        1.0000    0.82240   0.01860   0.95430   Biso      1.000     O          -0.983265           
         O4        1.0000    0.54080   0.87700   0.94440   Biso      1.000     O          -0.905185           
         O5        1.0000    0.80220   0.25120   0.93260   Biso      1.000     O          -0.712159           
         O6        1.0000    0.99800   0.18080   0.85910   Biso      1.000     O          -0.638035           
         O7        1.0000    0.62400   0.54980   0.59090   Biso      1.000     O          -0.838616           
         O8        1.0000    0.17760   0.51860   0.54570   Biso      1.000     O          -0.983265           
         O9        1.0000    0.45920   0.37700   0.55560   Biso      1.000     O          -0.905185           
         O10       1.0000    0.80220   0.24880   0.43260   Biso      1.000     O          -0.712159           
         O11       1.0000    0.99800   0.31920   0.35910   Biso      1.000     O          -0.638035           
         O12       1.0000    0.19780   0.75120   0.56740   Biso      1.000     O          -0.712159           
         O13       1.0000    0.17760   0.98140   0.04570   Biso      1.000     O          -0.983265           
         O14       1.0000    0.45920   0.12300   0.05560   Biso      1.000     O          -0.905185           
         O15       1.0000    0.19780   0.74880   0.06740   Biso      1.000     O          -0.712159           
         O16       1.0000    0.00200   0.81920   0.14090   Biso      1.000     O          -0.638035           
         O17       1.0000    0.37600   0.45020   0.40910   Biso      1.000     O          -0.838616           
         O18       1.0000    0.82240   0.48140   0.45430   Biso      1.000     O          -0.983265           
         O19       1.0000    0.54080   0.62300   0.44440   Biso      1.000     O          -0.905185           
         O20       1.0000    0.00200   0.68080   0.64090   Biso      1.000     O          -0.638035           
         P1        1.0000    0.58990   0.97910   0.91395   Biso      1.000     P          1.410387  
         P2        1.0000    0.41010   0.47910   0.58605   Biso      1.000     P          1.410387  
         P3        1.0000    0.58990   0.52090   0.41395   Biso      1.000     P          1.410387  
         P4        1.0000    0.41010   0.02090   0.08605   Biso      1.000     P          1.410387 