
##########################################################################
#               Crystallographic Information Format file
#               Produced by PyCifRW module
#
#  This is a CIF file.  CIF has been adopted by the International
#  Union of Crystallography as the standard for data archiving and
#  transmission.
#
#  For information on this file format, follow the CIF links at
#  http://www.iucr.org
##########################################################################

data_image0

_cell_length_a                          7.1555
_cell_length_b                          12.4238
_cell_length_c                          11.7575
_cell_angle_alpha                       90
_cell_angle_beta                        91.782
_cell_angle_gamma                       90
_symmetry_space_group_name_H-M          'P 1'
_symmetry_int_tables_number             1
loop_
  _symmetry_equiv_pos_as_xyz
         'x, y, z' 
loop_
  _atom_site_label
  _atom_site_occupancy
  _atom_site_fract_x
  _atom_site_fract_y
  _atom_site_fract_z
  _atom_site_thermal_displace_type
  _atom_site_B_iso_or_equiv
  _atom_site_type_symbol
  _atom_site_charge
         C1        1.0000    0.45790   0.65726   0.84774   Biso      1.000     C          0.435224  
         C2        1.0000    0.45790   0.84274   0.34774   Biso      1.000     C          0.435224  
         C3        1.0000    0.34620   0.66996   0.28459   Biso      1.000     C          0.089188  
         C4        1.0000    0.06550   0.40788   0.05460   Biso      1.000     C          -0.05055  
         C5        1.0000    0.53290   0.76259   0.16815   Biso      1.000     C          0.090985  
         C6        1.0000    0.98350   0.58898   0.06960   Biso      1.000     C          -0.054177           
         C7        1.0000    0.98350   0.91102   0.56960   Biso      1.000     C          -0.054177           
         C8        1.0000    0.53290   0.73741   0.66815   Biso      1.000     C          0.090985  
         C9        1.0000    0.06550   0.09212   0.55460   Biso      1.000     C          -0.05055  
         C10       1.0000    0.34620   0.83004   0.78459   Biso      1.000     C          0.089188  
         C11       1.0000    0.35520   0.75154   0.86577   Biso      1.000     C          -0.323752           
         C12       1.0000    0.54920   0.65355   0.74356   Biso      1.000     C          -0.318856           
         C13       1.0000    0.54210   0.34274   0.15226   Biso      1.000     C          0.435225  
         C14       1.0000    0.35520   0.74846   0.36577   Biso      1.000     C          -0.323752           
         C15       1.0000    0.45080   0.34645   0.25644   Biso      1.000     C          -0.318856           
         C16       1.0000    0.64480   0.24846   0.13423   Biso      1.000     C          -0.323758           
         C17       1.0000    0.54920   0.84645   0.24356   Biso      1.000     C          -0.318856           
         C18       1.0000    0.54210   0.15726   0.65226   Biso      1.000     C          0.435224  
         C19       1.0000    0.65380   0.16996   0.21541   Biso      1.000     C          0.089194  
         C20       1.0000    0.01650   0.08898   0.43040   Biso      1.000     C          -0.054177           
         C21       1.0000    0.46710   0.26259   0.33185   Biso      1.000     C          0.090985  
         C22       1.0000    0.93450   0.59212   0.94540   Biso      1.000     C          -0.05055  
         C23       1.0000    0.45080   0.15355   0.75644   Biso      1.000     C          -0.318856           
         C24       1.0000    0.46710   0.23741   0.83185   Biso      1.000     C          0.090985  
         C25       1.0000    0.01650   0.41102   0.93040   Biso      1.000     C          -0.054177           
         C26       1.0000    0.65380   0.33004   0.71541   Biso      1.000     C          0.089188  
         C27       1.0000    0.93450   0.90788   0.44540   Biso      1.000     C          -0.05055  
         C28       1.0000    0.64480   0.25154   0.63423   Biso      1.000     C          -0.323752           
         H1        1.0000    0.70700   0.23940   0.06660   Biso      1.000     H          0.132769  
         H2        1.0000    0.29300   0.73940   0.43340   Biso      1.000     H          0.132769  
         H3        1.0000    0.27460   0.60940   0.29950   Biso      1.000     H          0.078064  
         H4        1.0000    0.12670   0.42920   0.88850   Biso      1.000     H          0.095651  
         H5        1.0000    0.59600   0.76810   0.10040   Biso      1.000     H          0.079223  
         H6        1.0000    0.87330   0.92920   0.61150   Biso      1.000     H          0.095651  
         H7        1.0000    0.02600   0.84050   0.59440   Biso      1.000     H          0.103835  
         H8        1.0000    0.95700   0.11420   0.59630   Biso      1.000     H          0.090998  
         H9        1.0000    0.40400   0.26810   0.39960   Biso      1.000     H          0.079223  
         H10       1.0000    0.16390   0.14450   0.56900   Biso      1.000     H          0.106241  
         H11       1.0000    0.72540   0.10940   0.20050   Biso      1.000     H          0.078063  
         H12       1.0000    0.37900   0.40620   0.27420   Biso      1.000     H          0.133404  
         H13       1.0000    0.97400   0.34050   0.90560   Biso      1.000     H          0.103835  
         H14       1.0000    0.16390   0.35550   0.06900   Biso      1.000     H          0.106241  
         H15       1.0000    0.83610   0.64450   0.93100   Biso      1.000     H          0.106241  
         H16       1.0000    0.27460   0.89060   0.79950   Biso      1.000     H          0.078063  
         H17       1.0000    0.72540   0.39060   0.70050   Biso      1.000     H          0.078063  
         H18       1.0000    0.62100   0.59380   0.72580   Biso      1.000     H          0.133403  
         H19       1.0000    0.29300   0.76060   0.93340   Biso      1.000     H          0.132769  
         H20       1.0000    0.97400   0.15950   0.40560   Biso      1.000     H          0.103835  
         H21       1.0000    0.59600   0.73190   0.60040   Biso      1.000     H          0.079223  
         H22       1.0000    0.83610   0.85550   0.43100   Biso      1.000     H          0.106241  
         H23       1.0000    0.40400   0.23190   0.89960   Biso      1.000     H          0.079223  
         H24       1.0000    0.70700   0.26060   0.56660   Biso      1.000     H          0.132769  
         H25       1.0000    0.04300   0.88580   0.40370   Biso      1.000     H          0.090998  
         H26       1.0000    0.02600   0.65950   0.09440   Biso      1.000     H          0.103835  
         H27       1.0000    0.87330   0.57080   0.11150   Biso      1.000     H          0.095651  
         H28       1.0000    0.95700   0.38580   0.09630   Biso      1.000     H          0.090998  
         H29       1.0000    0.04300   0.61420   0.90370   Biso      1.000     H          0.090998  
         H30       1.0000    0.12670   0.07080   0.38850   Biso      1.000     H          0.095651  
         H31       1.0000    0.37900   0.09380   0.77420   Biso      1.000     H          0.133404  
         H32       1.0000    0.62100   0.90620   0.22580   Biso      1.000     H          0.133403  
         Li1       1.0000    0.60300   0.05250   0.42720   Biso      1.000     Li          0.735946  
         Li2       1.0000    0.39700   0.55250   0.07280   Biso      1.000     Li          0.735946  
         Li3       1.0000    0.39700   0.94750   0.57280   Biso      1.000     Li          0.735946  
         Li4       1.0000    0.60300   0.44750   0.92720   Biso      1.000     Li          0.735946  
         N1        1.0000    0.56750   0.32677   0.81497   Biso      1.000     N          -0.415627           
         N2        1.0000    0.43250   0.67323   0.18503   Biso      1.000     N          -0.415627           
         N3        1.0000    0.56750   0.17323   0.31497   Biso      1.000     N          -0.415627           
         N4        1.0000    0.43250   0.82677   0.68503   Biso      1.000     N          -0.415627           
         O1        1.0000    0.46870   0.57955   0.92124   Biso      1.000     O          -0.740431           
         O2        1.0000    0.87330   0.48844   0.90659   Biso      1.000     O          -0.268133           
         O3        1.0000    0.53130   0.42045   0.07876   Biso      1.000     O          -0.740431           
         O4        1.0000    0.12670   0.51156   0.09341   Biso      1.000     O          -0.268133           
         O5        1.0000    0.12670   0.98844   0.59341   Biso      1.000     O          -0.268133           
         O6        1.0000    0.46870   0.92045   0.42124   Biso      1.000     O          -0.740431           
         O7        1.0000    0.87330   0.01156   0.40659   Biso      1.000     O          -0.268134           
         O8        1.0000    0.53130   0.07955   0.57876   Biso      1.000     O          -0.740431 