
##########################################################################
#               Crystallographic Information Format file
#               Produced by PyCifRW module
#
#  This is a CIF file.  CIF has been adopted by the International
#  Union of Crystallography as the standard for data archiving and
#  transmission.
#
#  For information on this file format, follow the CIF links at
#  http://www.iucr.org
##########################################################################

data_image0

_cell_length_a                          18.5728
_cell_length_b                          18.5728
_cell_length_c                          18.5728
_cell_angle_alpha                       90
_cell_angle_beta                        90
_cell_angle_gamma                       90
_symmetry_space_group_name_H-M          'P 1'
_symmetry_int_tables_number             1
loop_
  _symmetry_equiv_pos_as_xyz
         'x, y, z' 
loop_
  _atom_site_label
  _atom_site_occupancy
  _atom_site_fract_x
  _atom_site_fract_y
  _atom_site_fract_z
  _atom_site_thermal_displace_type
  _atom_site_B_iso_or_equiv
  _atom_site_type_symbol
  _atom_site_charge
         C1        1.0000    0.22600   0.50000   0.03700   Biso      1.000     C          -0.034765           
         C2        1.0000    0.25900   0.58100   0.55000   Biso      1.000     C          0.59301   
         C3        1.0000    0.27400   0.00000   0.53700   Biso      1.000     C          -0.034766           
         C4        1.0000    0.26900   0.93600   0.57400   Biso      1.000     C          0.618008  
         C5        1.0000    0.56400   0.07400   0.76900   Biso      1.000     C          0.618009  
         C6        1.0000    0.50000   0.03700   0.77400   Biso      1.000     C          -0.034765           
         C7        1.0000    0.73300   0.46400   0.49100   Biso      1.000     C          -0.013729           
         C8        1.0000    0.74100   0.41900   0.55000   Biso      1.000     C          0.593015  
         C9        1.0000    0.72600   0.00000   0.53700   Biso      1.000     C          -0.034766           
         C10       1.0000    0.73100   0.06400   0.57400   Biso      1.000     C          0.618008  
         C11       1.0000    0.91900   0.05000   0.75900   Biso      1.000     C          0.593011  
         C12       1.0000    0.96400   0.99100   0.76700   Biso      1.000     C          -0.013721           
         C13       1.0000    0.26700   0.46400   0.50900   Biso      1.000     C          -0.013724           
         C14       1.0000    0.25900   0.41900   0.45000   Biso      1.000     C          0.593013  
         C15       1.0000    0.27400   0.00000   0.46300   Biso      1.000     C          -0.034753           
         C16       1.0000    0.26900   0.06400   0.42600   Biso      1.000     C          0.618007  
         C17       1.0000    0.23100   0.43600   0.07400   Biso      1.000     C          0.618008  
         C18       1.0000    0.50000   0.03700   0.22600   Biso      1.000     C          -0.034765           
         C19       1.0000    0.53600   0.50900   0.73300   Biso      1.000     C          -0.013722           
         C20       1.0000    0.58100   0.45000   0.74100   Biso      1.000     C          0.593013  
         C21       1.0000    0.00000   0.46300   0.72600   Biso      1.000     C          -0.034765           
         C22       1.0000    0.93600   0.42600   0.73100   Biso      1.000     C          0.618009  
         C23       1.0000    0.24100   0.08100   0.05000   Biso      1.000     C          0.59301   
         C24       1.0000    0.23300   0.03600   0.99100   Biso      1.000     C          -0.013721           
         C25       1.0000    0.53600   0.49100   0.26700   Biso      1.000     C          -0.013717           
         C26       1.0000    0.58100   0.55000   0.25900   Biso      1.000     C          0.593012  
         C27       1.0000    0.00000   0.53700   0.27400   Biso      1.000     C          -0.034764           
         C28       1.0000    0.93600   0.57400   0.26900   Biso      1.000     C          0.618008  
         C29       1.0000    0.26700   0.53600   0.49100   Biso      1.000     C          -0.013717           
         C30       1.0000    0.76900   0.43600   0.92600   Biso      1.000     C          0.618008  
         C31       1.0000    0.96400   0.00900   0.23300   Biso      1.000     C          -0.013721           
         C32       1.0000    0.73100   0.93600   0.42600   Biso      1.000     C          0.618007  
         C33       1.0000    0.99100   0.76700   0.96400   Biso      1.000     C          -0.013728           
         C34       1.0000    0.05000   0.75900   0.91900   Biso      1.000     C          0.593015  
         C35       1.0000    0.03700   0.77400   0.50000   Biso      1.000     C          -0.034765           
         C36       1.0000    0.07400   0.76900   0.56400   Biso      1.000     C          0.618008  
         C37       1.0000    0.08100   0.05000   0.24100   Biso      1.000     C          0.593011  
         C38       1.0000    0.03600   0.99100   0.23300   Biso      1.000     C          -0.013721           
         C39       1.0000    0.00900   0.23300   0.96400   Biso      1.000     C          -0.013725           
         C40       1.0000    0.95000   0.24100   0.91900   Biso      1.000     C          0.593014  
         C41       1.0000    0.96300   0.22600   0.50000   Biso      1.000     C          -0.034766           
         C42       1.0000    0.92600   0.23100   0.56400   Biso      1.000     C          0.618009  
         C43       1.0000    0.43600   0.92600   0.76900   Biso      1.000     C          0.618007  
         C44       1.0000    0.50000   0.96300   0.77400   Biso      1.000     C          -0.034753           
         C45       1.0000    0.00900   0.76700   0.03600   Biso      1.000     C          -0.013717           
         C46       1.0000    0.95000   0.75900   0.08100   Biso      1.000     C          0.593013  
         C47       1.0000    0.96300   0.77400   0.50000   Biso      1.000     C          -0.034754           
         C48       1.0000    0.92600   0.76900   0.43600   Biso      1.000     C          0.618007  
         C49       1.0000    0.08100   0.95000   0.75900   Biso      1.000     C          0.593011  
         C50       1.0000    0.03600   0.00900   0.76700   Biso      1.000     C          -0.013719           
         C51       1.0000    0.99100   0.23300   0.03600   Biso      1.000     C          -0.01372  
         C52       1.0000    0.05000   0.24100   0.08100   Biso      1.000     C          0.593013  
         C53       1.0000    0.03700   0.22600   0.50000   Biso      1.000     C          -0.034753           
         C54       1.0000    0.07400   0.23100   0.43600   Biso      1.000     C          0.618007  
         C55       1.0000    0.56400   0.92600   0.23100   Biso      1.000     C          0.618007  
         C56       1.0000    0.50000   0.96300   0.22600   Biso      1.000     C          -0.034753           
         C57       1.0000    0.73300   0.53600   0.50900   Biso      1.000     C          -0.013716           
         C58       1.0000    0.74100   0.58100   0.45000   Biso      1.000     C          0.593013  
         C59       1.0000    0.72600   0.00000   0.46300   Biso      1.000     C          -0.034752           
         C60       1.0000    0.91900   0.95000   0.24100   Biso      1.000     C          0.593013  
         C61       1.0000    0.77400   0.50000   0.96300   Biso      1.000     C          -0.034766           
         C62       1.0000    0.43600   0.07400   0.23100   Biso      1.000     C          0.618008  
         C63       1.0000    0.46400   0.49100   0.73300   Biso      1.000     C          -0.013723           
         C64       1.0000    0.55000   0.74100   0.41900   Biso      1.000     C          0.59301   
         C65       1.0000    0.49100   0.73300   0.46400   Biso      1.000     C          -0.013716           
         C66       1.0000    0.06400   0.42600   0.26900   Biso      1.000     C          0.618006  
         C67       1.0000    0.77400   0.50000   0.03700   Biso      1.000     C          -0.034753           
         C68       1.0000    0.76900   0.56400   0.07400   Biso      1.000     C          0.618007  
         C69       1.0000    0.23100   0.56400   0.92600   Biso      1.000     C          0.618007  
         C70       1.0000    0.22600   0.50000   0.96300   Biso      1.000     C          -0.034753           
         C71       1.0000    0.53700   0.72600   0.00000   Biso      1.000     C          -0.034765           
         C72       1.0000    0.57400   0.26900   0.93600   Biso      1.000     C          0.618008  
         C73       1.0000    0.53700   0.27400   0.00000   Biso      1.000     C          -0.034765           
         C74       1.0000    0.45000   0.74100   0.58100   Biso      1.000     C          0.593013  
         C75       1.0000    0.55000   0.25900   0.58100   Biso      1.000     C          0.593011  
         C76       1.0000    0.49100   0.26700   0.53600   Biso      1.000     C          -0.013722           
         C77       1.0000    0.46300   0.72600   0.00000   Biso      1.000     C          -0.034754           
         C78       1.0000    0.42600   0.73100   0.93600   Biso      1.000     C          0.618006  
         C79       1.0000    0.24100   0.91900   0.95000   Biso      1.000     C          0.593011  
         C80       1.0000    0.50900   0.73300   0.53600   Biso      1.000     C          -0.013724           
         C81       1.0000    0.41900   0.45000   0.25900   Biso      1.000     C          0.593012  
         C82       1.0000    0.00000   0.46300   0.27400   Biso      1.000     C          -0.034754           
         C83       1.0000    0.46400   0.50900   0.26700   Biso      1.000     C          -0.013725           
         C84       1.0000    0.41900   0.55000   0.74100   Biso      1.000     C          0.593014  
         C85       1.0000    0.42600   0.26900   0.06400   Biso      1.000     C          0.618007  
         C86       1.0000    0.46300   0.27400   0.00000   Biso      1.000     C          -0.034753           
         C87       1.0000    0.00000   0.53700   0.72600   Biso      1.000     C          -0.034754           
         C88       1.0000    0.57400   0.73100   0.06400   Biso      1.000     C          0.618008  
         C89       1.0000    0.50900   0.26700   0.46400   Biso      1.000     C          -0.01372  
         C90       1.0000    0.06400   0.57400   0.73100   Biso      1.000     C          0.618007  
         C91       1.0000    0.75900   0.08100   0.95000   Biso      1.000     C          0.593011  
         C92       1.0000    0.45000   0.25900   0.41900   Biso      1.000     C          0.593013  
         C93       1.0000    0.23300   0.96400   0.00900   Biso      1.000     C          -0.013719           
         C94       1.0000    0.76700   0.96400   0.99100   Biso      1.000     C          -0.013723           
         C95       1.0000    0.75900   0.91900   0.05000   Biso      1.000     C          0.593014  
         C96       1.0000    0.76700   0.03600   0.00900   Biso      1.000     C          -0.01372  
         Ce1       1.0000    0.74020   0.75590   0.39290   Biso      1.000     Ce          1.984344  
         Ce2       1.0000    0.25590   0.10710   0.24020   Biso      1.000     Ce          1.98434   
         Ce3       1.0000    0.74410   0.10710   0.75980   Biso      1.000     Ce          1.984342  
         Ce4       1.0000    0.74410   0.89290   0.24020   Biso      1.000     Ce          1.984342  
         Ce5       1.0000    0.75590   0.60710   0.25980   Biso      1.000     Ce          1.984343  
         Ce6       1.0000    0.60710   0.74020   0.24410   Biso      1.000     Ce          1.984343  
         Ce7       1.0000    0.10710   0.75980   0.74410   Biso      1.000     Ce          1.984341  
         Ce8       1.0000    0.89290   0.75980   0.25590   Biso      1.000     Ce          1.984343  
         Ce9       1.0000    0.10710   0.24020   0.25590   Biso      1.000     Ce          1.984339  
         Ce10      1.0000    0.89290   0.24020   0.74410   Biso      1.000     Ce          1.984342  
         Ce11      1.0000    0.60710   0.25980   0.75590   Biso      1.000     Ce          1.984342  
         Ce12      1.0000    0.25590   0.89290   0.75980   Biso      1.000     Ce          1.98434   
         Ce13      1.0000    0.75980   0.74410   0.10710   Biso      1.000     Ce          1.984344  
         Ce14      1.0000    0.39290   0.74020   0.75590   Biso      1.000     Ce          1.98434   
         Ce15      1.0000    0.39290   0.25980   0.24410   Biso      1.000     Ce          1.98434   
         Ce16      1.0000    0.24020   0.74410   0.89290   Biso      1.000     Ce          1.984339  
         Ce17      1.0000    0.75980   0.25590   0.89290   Biso      1.000     Ce          1.984341  
         Ce18      1.0000    0.75590   0.39290   0.74020   Biso      1.000     Ce          1.984343  
         Ce19      1.0000    0.74020   0.24410   0.60710   Biso      1.000     Ce          1.98434   
         Ce20      1.0000    0.24020   0.25590   0.10710   Biso      1.000     Ce          1.984341  
         Ce21      1.0000    0.24410   0.60710   0.74020   Biso      1.000     Ce          1.98434   
         Ce22      1.0000    0.24410   0.39290   0.25980   Biso      1.000     Ce          1.984338  
         Ce23      1.0000    0.25980   0.24410   0.39290   Biso      1.000     Ce          1.984341  
         Ce24      1.0000    0.25980   0.75590   0.60710   Biso      1.000     Ce          1.98434   
         O1        1.0000    0.77300   0.37200   0.95200   Biso      1.000     O          -0.511004           
         O2        1.0000    0.24300   0.15100   0.03040   Biso      1.000     O          -0.518176           
         O3        1.0000    0.24800   0.06550   0.11700   Biso      1.000     O          -0.471353           
         O4        1.0000    0.33490   0.33490   0.33490   Biso      1.000     O          -0.767572           
         O5        1.0000    0.44700   0.85700   0.75700   Biso      1.000     O          -0.519209           
         O6        1.0000    0.75700   0.44700   0.85700   Biso      1.000     O          -0.519208           
         O7        1.0000    0.83490   0.83490   0.16510   Biso      1.000     O          -0.767577           
         O8        1.0000    0.37200   0.95200   0.77300   Biso      1.000     O          -0.511003           
         O9        1.0000    0.32250   0.82250   0.82250   Biso      1.000     O          -0.871275           
         O10       1.0000    0.66510   0.66510   0.33490   Biso      1.000     O          -0.767579           
         O11       1.0000    0.16510   0.16510   0.16510   Biso      1.000     O          -0.767574           
         O12       1.0000    0.15100   0.03040   0.24300   Biso      1.000     O          -0.518177           
         O13       1.0000    0.06550   0.11700   0.24800   Biso      1.000     O          -0.471358           
         O14       1.0000    0.82250   0.32250   0.82250   Biso      1.000     O          -0.871277           
         O15       1.0000    0.33490   0.66510   0.66510   Biso      1.000     O          -0.767572           
         O16       1.0000    0.66510   0.33490   0.66510   Biso      1.000     O          -0.767575           
         O17       1.0000    0.75700   0.15100   0.96960   Biso      1.000     O          -0.518177           
         O18       1.0000    0.75200   0.06550   0.88300   Biso      1.000     O          -0.471357           
         O19       1.0000    0.62800   0.04800   0.77300   Biso      1.000     O          -0.511004           
         O20       1.0000    0.67750   0.17750   0.82250   Biso      1.000     O          -0.871278           
         O21       1.0000    0.55300   0.14300   0.75700   Biso      1.000     O          -0.51921  
         O22       1.0000    0.24800   0.93450   0.88300   Biso      1.000     O          -0.471357           
         O23       1.0000    0.24300   0.84900   0.96960   Biso      1.000     O          -0.518178           
         O24       1.0000    0.82250   0.67750   0.17750   Biso      1.000     O          -0.87128  
         O25       1.0000    0.93450   0.88300   0.24800   Biso      1.000     O          -0.471351           
         O26       1.0000    0.84900   0.96960   0.24300   Biso      1.000     O          -0.518177           
         O27       1.0000    0.77300   0.62800   0.04800   Biso      1.000     O          -0.511004           
         O28       1.0000    0.84900   0.03040   0.75700   Biso      1.000     O          -0.518177           
         O29       1.0000    0.93450   0.11700   0.75200   Biso      1.000     O          -0.471353           
         O30       1.0000    0.75700   0.55300   0.14300   Biso      1.000     O          -0.519208           
         O31       1.0000    0.55300   0.85700   0.24300   Biso      1.000     O          -0.519209           
         O32       1.0000    0.62800   0.95200   0.22700   Biso      1.000     O          -0.511004           
         O33       1.0000    0.67750   0.82250   0.17750   Biso      1.000     O          -0.871281           
         O34       1.0000    0.24300   0.55300   0.85700   Biso      1.000     O          -0.519209           
         O35       1.0000    0.17750   0.32250   0.17750   Biso      1.000     O          -0.871277           
         O36       1.0000    0.22700   0.37200   0.04800   Biso      1.000     O          -0.511003           
         O37       1.0000    0.22700   0.62800   0.95200   Biso      1.000     O          -0.511003           
         O38       1.0000    0.24300   0.44700   0.14300   Biso      1.000     O          -0.519209           
         O39       1.0000    0.75700   0.84900   0.03040   Biso      1.000     O          -0.518177           
         O40       1.0000    0.75200   0.93450   0.11700   Biso      1.000     O          -0.471353           
         O41       1.0000    0.17750   0.67750   0.82250   Biso      1.000     O          -0.871276           
         O42       1.0000    0.15100   0.96960   0.75700   Biso      1.000     O          -0.518177           
         O43       1.0000    0.06550   0.88300   0.75200   Biso      1.000     O          -0.471358           
         O44       1.0000    0.14300   0.24300   0.44700   Biso      1.000     O          -0.51921  
         O45       1.0000    0.37200   0.04800   0.22700   Biso      1.000     O          -0.511004           
         O46       1.0000    0.12800   0.45200   0.27300   Biso      1.000     O          -0.511004           
         O47       1.0000    0.05300   0.35700   0.25700   Biso      1.000     O          -0.519205           
         O48       1.0000    0.34900   0.46960   0.25700   Biso      1.000     O          -0.518178           
         O49       1.0000    0.43450   0.38300   0.25200   Biso      1.000     O          -0.471363           
         O50       1.0000    0.17750   0.67750   0.67750   Biso      1.000     O          -0.871276           
         O51       1.0000    0.12800   0.54800   0.72700   Biso      1.000     O          -0.511004           
         O52       1.0000    0.05300   0.64300   0.74300   Biso      1.000     O          -0.519208           
         O53       1.0000    0.34900   0.53040   0.74300   Biso      1.000     O          -0.518178           
         O54       1.0000    0.43450   0.61700   0.74800   Biso      1.000     O          -0.471359           
         O55       1.0000    0.82250   0.67750   0.32250   Biso      1.000     O          -0.871281           
         O56       1.0000    0.87200   0.54800   0.27300   Biso      1.000     O          -0.511002           
         O57       1.0000    0.94700   0.64300   0.25700   Biso      1.000     O          -0.519211           
         O58       1.0000    0.65100   0.53040   0.25700   Biso      1.000     O          -0.518176           
         O59       1.0000    0.56550   0.61700   0.25200   Biso      1.000     O          -0.471347           
         O60       1.0000    0.82250   0.32250   0.67750   Biso      1.000     O          -0.871278           
         O61       1.0000    0.87200   0.45200   0.72700   Biso      1.000     O          -0.511004           
         O62       1.0000    0.94700   0.35700   0.74300   Biso      1.000     O          -0.51921  
         O63       1.0000    0.17750   0.32250   0.32250   Biso      1.000     O          -0.871276           
         O64       1.0000    0.65100   0.46960   0.74300   Biso      1.000     O          -0.518177           
         O65       1.0000    0.38300   0.74800   0.56550   Biso      1.000     O          -0.471362           
         O66       1.0000    0.35700   0.74300   0.94700   Biso      1.000     O          -0.519206           
         O67       1.0000    0.32250   0.32250   0.17750   Biso      1.000     O          -0.871274           
         O68       1.0000    0.45200   0.27300   0.12800   Biso      1.000     O          -0.511004           
         O69       1.0000    0.35700   0.25700   0.05300   Biso      1.000     O          -0.519209           
         O70       1.0000    0.46960   0.25700   0.34900   Biso      1.000     O          -0.518178           
         O71       1.0000    0.38300   0.25200   0.43450   Biso      1.000     O          -0.471356           
         O72       1.0000    0.67750   0.67750   0.17750   Biso      1.000     O          -0.871282           
         O73       1.0000    0.54800   0.72700   0.12800   Biso      1.000     O          -0.511003           
         O74       1.0000    0.64300   0.74300   0.05300   Biso      1.000     O          -0.519211           
         O75       1.0000    0.53040   0.74300   0.34900   Biso      1.000     O          -0.518176           
         O76       1.0000    0.61700   0.74800   0.43450   Biso      1.000     O          -0.471349           
         O77       1.0000    0.67750   0.32250   0.82250   Biso      1.000     O          -0.871279           
         O78       1.0000    0.54800   0.27300   0.87200   Biso      1.000     O          -0.511004           
         O79       1.0000    0.64300   0.25700   0.94700   Biso      1.000     O          -0.519208           
         O80       1.0000    0.53040   0.25700   0.65100   Biso      1.000     O          -0.518177           
         O81       1.0000    0.61700   0.25200   0.56550   Biso      1.000     O          -0.471355           
         O82       1.0000    0.32250   0.67750   0.82250   Biso      1.000     O          -0.871274           
         O83       1.0000    0.45200   0.72700   0.87200   Biso      1.000     O          -0.511004           
         O84       1.0000    0.46960   0.74300   0.65100   Biso      1.000     O          -0.518178           
         O85       1.0000    0.56550   0.38300   0.74800   Biso      1.000     O          -0.471352           
         O86       1.0000    0.32250   0.17750   0.32250   Biso      1.000     O          -0.871278           
         O87       1.0000    0.27300   0.12800   0.45200   Biso      1.000     O          -0.511004           
         O88       1.0000    0.11700   0.24800   0.06550   Biso      1.000     O          -0.471355           
         O89       1.0000    0.82250   0.82250   0.32250   Biso      1.000     O          -0.871281           
         O90       1.0000    0.95200   0.77300   0.37200   Biso      1.000     O          -0.511004           
         O91       1.0000    0.85700   0.75700   0.44700   Biso      1.000     O          -0.519208           
         O92       1.0000    0.96960   0.75700   0.15100   Biso      1.000     O          -0.518177           
         O93       1.0000    0.88300   0.75200   0.06550   Biso      1.000     O          -0.471352           
         O94       1.0000    0.82250   0.17750   0.67750   Biso      1.000     O          -0.871279           
         O95       1.0000    0.95200   0.22700   0.62800   Biso      1.000     O          -0.511004           
         O96       1.0000    0.85700   0.24300   0.55300   Biso      1.000     O          -0.519209           
         O97       1.0000    0.96960   0.24300   0.84900   Biso      1.000     O          -0.518177           
         O98       1.0000    0.88300   0.24800   0.93450   Biso      1.000     O          -0.471355           
         O99       1.0000    0.17750   0.82250   0.67750   Biso      1.000     O          -0.871274           
         O100      1.0000    0.04800   0.77300   0.62800   Biso      1.000     O          -0.511004           
         O101      1.0000    0.14300   0.75700   0.55300   Biso      1.000     O          -0.519208           
         O102      1.0000    0.03040   0.75700   0.84900   Biso      1.000     O          -0.518178           
         O103      1.0000    0.11700   0.75200   0.93450   Biso      1.000     O          -0.471358           
         O104      1.0000    0.32250   0.17750   0.17750   Biso      1.000     O          -0.871276           
         O105      1.0000    0.03040   0.24300   0.15100   Biso      1.000     O          -0.518178           
         O106      1.0000    0.83490   0.16510   0.83490   Biso      1.000     O          -0.767575           
         O107      1.0000    0.04800   0.22700   0.37200   Biso      1.000     O          -0.511003           
         O108      1.0000    0.17750   0.17750   0.32250   Biso      1.000     O          -0.871276           
         O109      1.0000    0.25700   0.05300   0.35700   Biso      1.000     O          -0.519209           
         O110      1.0000    0.25700   0.34900   0.46960   Biso      1.000     O          -0.518177           
         O111      1.0000    0.25200   0.43450   0.38300   Biso      1.000     O          -0.471354           
         O112      1.0000    0.67750   0.17750   0.67750   Biso      1.000     O          -0.871277           
         O113      1.0000    0.72700   0.12800   0.54800   Biso      1.000     O          -0.511004           
         O114      1.0000    0.74300   0.05300   0.64300   Biso      1.000     O          -0.519208           
         O115      1.0000    0.74300   0.34900   0.53040   Biso      1.000     O          -0.518178           
         O116      1.0000    0.74800   0.43450   0.61700   Biso      1.000     O          -0.47136  
         O117      1.0000    0.44700   0.14300   0.24300   Biso      1.000     O          -0.519208           
         O118      1.0000    0.32250   0.82250   0.67750   Biso      1.000     O          -0.871275           
         O119      1.0000    0.25700   0.94700   0.64300   Biso      1.000     O          -0.519209           
         O120      1.0000    0.25700   0.65100   0.53040   Biso      1.000     O          -0.518177           
         O121      1.0000    0.25200   0.56550   0.61700   Biso      1.000     O          -0.471356           
         O122      1.0000    0.67750   0.82250   0.32250   Biso      1.000     O          -0.871281           
         O123      1.0000    0.72700   0.87200   0.45200   Biso      1.000     O          -0.511003           
         O124      1.0000    0.74300   0.94700   0.35700   Biso      1.000     O          -0.519209           
         O125      1.0000    0.74300   0.65100   0.46960   Biso      1.000     O          -0.518177           
         O126      1.0000    0.74800   0.56550   0.38300   Biso      1.000     O          -0.471351           
         O127      1.0000    0.27300   0.87200   0.54800   Biso      1.000     O          -0.511004           
         O128      1.0000    0.16510   0.83490   0.83490   Biso      1.000     O          -0.767573 