
##########################################################################
#               Crystallographic Information Format file
#               Produced by PyCifRW module
#
#  This is a CIF file.  CIF has been adopted by the International
#  Union of Crystallography as the standard for data archiving and
#  transmission.
#
#  For information on this file format, follow the CIF links at
#  http://www.iucr.org
##########################################################################

data_image0

_cell_length_a                          9.175
_cell_length_b                          9.493
_cell_length_c                          21.51
_cell_angle_alpha                       90
_cell_angle_beta                        90
_cell_angle_gamma                       116.483
_symmetry_space_group_name_H-M          'P 1'
_symmetry_int_tables_number             1
loop_
  _symmetry_equiv_pos_as_xyz
         'x, y, z' 
loop_
  _atom_site_label
  _atom_site_occupancy
  _atom_site_fract_x
  _atom_site_fract_y
  _atom_site_fract_z
  _atom_site_thermal_displace_type
  _atom_site_B_iso_or_equiv
  _atom_site_type_symbol
  _atom_site_charge
         C1        1.0000    0.99750   0.52190   0.46640   Biso      1.000     C          0.49797299999999994           
         C2        1.0000    0.98810   0.99190   0.96450   Biso      1.000     C          0.500871  
         C3        1.0000    0.60300   0.44360   0.19590   Biso      1.000     C          0.097134  
         C4        1.0000    0.54780   0.49040   0.31660   Biso      1.000     C          -0.06740700000000001          
         C5        1.0000    0.12900   0.12060   0.63330   Biso      1.000     C          0.07118300000000001           
         C6        1.0000    0.15760   0.99760   0.61440   Biso      1.000     C          -0.097086           
         C7        1.0000    0.59370   0.37370   0.30230   Biso      1.000     C          -0.040658           
         C8        1.0000    0.61860   0.34860   0.24110   Biso      1.000     C          -0.12829300000000002          
         C9        1.0000    0.52920   0.57840   0.26810   Biso      1.000     C          0.021805  
         C10       1.0000    0.01190   0.00810   0.03550   Biso      1.000     C          0.500888  
         C11       1.0000    0.73260   0.24320   0.02800   Biso      1.000     C          0.6536390000000001  
         C12       1.0000    0.98670   0.47750   0.88160   Biso      1.000     C          0.640195  
         C13       1.0000    0.59710   0.11200   0.06430   Biso      1.000     C          -0.064109           
         C14       1.0000    0.26740   0.75680   0.97200   Biso      1.000     C          0.6536489999999999  
         C15       1.0000    0.61450   0.98170   0.08200   Biso      1.000     C          0.049037  
         C16       1.0000    0.97080   0.42160   0.76810   Biso      1.000     C          0.021825999999999998          
         C17       1.0000    0.88140   0.65140   0.74110   Biso      1.000     C          -0.128299           
         C18       1.0000    0.90630   0.62630   0.80230   Biso      1.000     C          -0.040654           
         C19       1.0000    0.34240   0.00240   0.11440   Biso      1.000     C          -0.097092           
         C20       1.0000    0.37100   0.87940   0.13330   Biso      1.000     C          0.071167  
         C21       1.0000    0.95220   0.50960   0.81660   Biso      1.000     C          -0.06743099999999999          
         C22       1.0000    0.89700   0.55640   0.69590   Biso      1.000     C          0.09711   
         C23       1.0000    0.50250   0.47810   0.96640   Biso      1.000     C          0.49795   
         C24       1.0000    0.48810   0.99190   0.53550   Biso      1.000     C          0.500868  
         C25       1.0000    0.76740   0.75680   0.52800   Biso      1.000     C          0.653645  
         C26       1.0000    0.51330   0.52250   0.38160   Biso      1.000     C          0.640169  
         C27       1.0000    0.90290   0.88800   0.56430   Biso      1.000     C          -0.064131           
         C28       1.0000    0.45960   0.12130   0.08130   Biso      1.000     C          -0.051754999999999995         
         C29       1.0000    0.01330   0.52250   0.11840   Biso      1.000     C          0.640171  
         C30       1.0000    0.40290   0.88800   0.93570   Biso      1.000     C          -0.064138           
         C31       1.0000    0.38550   0.01830   0.91800   Biso      1.000     C          0.049007999999999996          
         C32       1.0000    0.00250   0.47810   0.53360   Biso      1.000     C          0.497958  
         C33       1.0000    0.39700   0.55640   0.80410   Biso      1.000     C          0.097105  
         C34       1.0000    0.45220   0.50960   0.68340   Biso      1.000     C          -0.067446           
         C35       1.0000    0.87100   0.87940   0.36670   Biso      1.000     C          0.071184  
         C36       1.0000    0.84240   0.00240   0.38560   Biso      1.000     C          -0.097079           
         C37       1.0000    0.40630   0.62630   0.69770   Biso      1.000     C          -0.04068  
         C38       1.0000    0.38140   0.65140   0.75890   Biso      1.000     C          -0.12828900000000001          
         C39       1.0000    0.47080   0.42160   0.73190   Biso      1.000     C          0.021825999999999998          
         C40       1.0000    0.95960   0.12130   0.41870   Biso      1.000     C          -0.05179299999999999          
         C41       1.0000    0.88550   0.01830   0.58200   Biso      1.000     C          0.049007  
         C42       1.0000    0.09710   0.11200   0.43570   Biso      1.000     C          -0.06409400000000001          
         C43       1.0000    0.11450   0.98170   0.41800   Biso      1.000     C          0.04904   
         C44       1.0000    0.23260   0.24320   0.47200   Biso      1.000     C          0.653638  
         C45       1.0000    0.54040   0.87870   0.91870   Biso      1.000     C          -0.051806           
         C46       1.0000    0.02920   0.57840   0.23190   Biso      1.000     C          0.021836  
         C47       1.0000    0.11860   0.34860   0.25890   Biso      1.000     C          -0.12829400000000002          
         C48       1.0000    0.48670   0.47750   0.61840   Biso      1.000     C          0.640197  
         C49       1.0000    0.09370   0.37370   0.19770   Biso      1.000     C          -0.040648000000000004         
         C50       1.0000    0.04040   0.87870   0.58130   Biso      1.000     C          -0.051796           
         C51       1.0000    0.62900   0.12060   0.86670   Biso      1.000     C          0.071175  
         C52       1.0000    0.04780   0.49040   0.18340   Biso      1.000     C          -0.067416           
         C53       1.0000    0.10300   0.44360   0.30410   Biso      1.000     C          0.097131  
         C54       1.0000    0.49750   0.52190   0.03360   Biso      1.000     C          0.49799   
         C55       1.0000    0.51190   0.00810   0.46450   Biso      1.000     C          0.500879  
         C56       1.0000    0.65760   0.99760   0.88560   Biso      1.000     C          -0.097083           
         Cu1       1.0000    0.53842   0.69177   0.14639   Biso      1.000     Cu          0.34137399999999996           
         Cu2       1.0000    0.03842   0.69177   0.35361   Biso      1.000     Cu          0.341079  
         Cu3       1.0000    0.46158   0.30823   0.85361   Biso      1.000     Cu          0.34079   
         Cu4       1.0000    0.96158   0.30823   0.64639   Biso      1.000     Cu          0.340998  
         Dy1       1.0000    0.12484   0.35745   0.99173   Biso      1.000     Dy          2.065036  
         Dy2       1.0000    0.37516   0.64255   0.49173   Biso      1.000     Dy          2.065045  
         Dy3       1.0000    0.87516   0.64255   0.00827   Biso      1.000     Dy          2.065044  
         Dy4       1.0000    0.62484   0.35745   0.50827   Biso      1.000     Dy          2.065036  
         H1        1.0000    0.79460   0.80240   0.34140   Biso      1.000     H          0.081924  
         H2        1.0000    0.64580   0.26830   0.23030   Biso      1.000     H          0.128402  
         H3        1.0000    0.49560   0.65500   0.27750   Biso      1.000     H          0.101918  
         H4        1.0000    0.05480   0.79100   0.57040   Biso      1.000     H          0.12099800000000001           
         H5        1.0000    0.79290   0.02680   0.56920   Biso      1.000     H          0.10864800000000001           
         H6        1.0000    0.87530   0.57170   0.65490   Biso      1.000     H          0.101602  
         H7        1.0000    0.29460   0.80240   0.15860   Biso      1.000     H          0.081915  
         H8        1.0000    0.89240   0.68680   0.83360   Biso      1.000     H          0.134603  
         H9        1.0000    0.37530   0.57170   0.84510   Biso      1.000     H          0.101603  
         H10       1.0000    0.85420   0.73170   0.73030   Biso      1.000     H          0.12839   
         H11       1.0000    0.00440   0.34500   0.77750   Biso      1.000     H          0.101912  
         H12       1.0000    0.44520   0.20900   0.07040   Biso      1.000     H          0.12100799999999999           
         H13       1.0000    0.70710   0.97320   0.06920   Biso      1.000     H          0.10865699999999999           
         H14       1.0000    0.24470   0.00490   0.12400   Biso      1.000     H          0.136094  
         H15       1.0000    0.25530   0.99510   0.62400   Biso      1.000     H          0.136096  
         H16       1.0000    0.60760   0.31320   0.33360   Biso      1.000     H          0.13461199999999998           
         H17       1.0000    0.62470   0.42830   0.15490   Biso      1.000     H          0.101616  
         H18       1.0000    0.74470   0.00490   0.37600   Biso      1.000     H          0.136103  
         H19       1.0000    0.39240   0.68680   0.66640   Biso      1.000     H          0.134596  
         H20       1.0000    0.35420   0.73170   0.76970   Biso      1.000     H          0.128388  
         H21       1.0000    0.50440   0.34500   0.72250   Biso      1.000     H          0.101906  
         H22       1.0000    0.94520   0.20900   0.42960   Biso      1.000     H          0.12101500000000001           
         H23       1.0000    0.20540   0.19760   0.65860   Biso      1.000     H          0.081926  
         H24       1.0000    0.12470   0.42830   0.34510   Biso      1.000     H          0.101612  
         H25       1.0000    0.20710   0.97320   0.43080   Biso      1.000     H          0.10865799999999999           
         H26       1.0000    0.75530   0.99510   0.87600   Biso      1.000     H          0.136094  
         H27       1.0000    0.10760   0.31320   0.16640   Biso      1.000     H          0.134615  
         H28       1.0000    0.14580   0.26830   0.26970   Biso      1.000     H          0.128411  
         H29       1.0000    0.99560   0.65500   0.22250   Biso      1.000     H          0.10192899999999999           
         H30       1.0000    0.55480   0.79100   0.92960   Biso      1.000     H          0.12099700000000001           
         H31       1.0000    0.29290   0.02680   0.93080   Biso      1.000     H          0.108646  
         H32       1.0000    0.70540   0.19760   0.84140   Biso      1.000     H          0.081923  
         N1        1.0000    0.44240   0.44210   0.79180   Biso      1.000     N          -0.184422           
         N2        1.0000    0.00430   0.86530   0.38310   Biso      1.000     N          -0.187723           
         N3        1.0000    0.05760   0.55790   0.29180   Biso      1.000     N          -0.18448299999999998          
         N4        1.0000    0.49570   0.13470   0.88310   Biso      1.000     N          -0.18766  
         N5        1.0000    0.99570   0.13470   0.61690   Biso      1.000     N          -0.187691           
         N6        1.0000    0.94240   0.44210   0.70820   Biso      1.000     N          -0.184453           
         N7        1.0000    0.55760   0.55790   0.20820   Biso      1.000     N          -0.184524           
         N8        1.0000    0.50430   0.86530   0.11690   Biso      1.000     N          -0.18775799999999998          
         O1        1.0000    0.22450   0.37130   0.47190   Biso      1.000     O          -0.671599           
         O2        1.0000    0.44580   0.54030   0.57543   Biso      1.000     O          -0.695547           
         O3        1.0000    0.55370   0.39000   0.61056   Biso      1.000     O          -0.623071           
         O4        1.0000    0.58980   0.14400   0.44304   Biso      1.000     O          -0.6187729999999999           
         O5        1.0000    0.86970   0.38240   0.55788   Biso      1.000     O          -0.5880569999999999           
         O6        1.0000    0.33960   0.21480   0.49614   Biso      1.000     O          -0.655687           
         O7        1.0000    0.86380   0.46090   0.43902   Biso      1.000     O          -0.577318           
         O8        1.0000    0.05160   0.11730   0.93417   Biso      1.000     O          -0.600499           
         O9        1.0000    0.27550   0.62870   0.97190   Biso      1.000     O          -0.671616           
         O10       1.0000    0.05420   0.45970   0.07543   Biso      1.000     O          -0.695504           
         O11       1.0000    0.94630   0.61000   0.11056   Biso      1.000     O          -0.623066           
         O12       1.0000    0.91020   0.85600   0.94304   Biso      1.000     O          -0.618735           
         O13       1.0000    0.63030   0.61760   0.05788   Biso      1.000     O          -0.588119           
         O14       1.0000    0.16040   0.78520   0.99614   Biso      1.000     O          -0.655721           
         O15       1.0000    0.36380   0.46090   0.06098   Biso      1.000     O          -0.577324           
         O16       1.0000    0.55160   0.11730   0.56583   Biso      1.000     O          -0.600496           
         O17       1.0000    0.55420   0.45970   0.42457   Biso      1.000     O          -0.69552  
         O18       1.0000    0.44630   0.61000   0.38944   Biso      1.000     O          -0.623074           
         O19       1.0000    0.41020   0.85600   0.55696   Biso      1.000     O          -0.618727           
         O20       1.0000    0.13030   0.61760   0.44212   Biso      1.000     O          -0.58812  
         O21       1.0000    0.66040   0.78520   0.50386   Biso      1.000     O          -0.655726           
         O22       1.0000    0.63620   0.53910   0.93902   Biso      1.000     O          -0.577257           
         O23       1.0000    0.94840   0.88270   0.06583   Biso      1.000     O          -0.600568           
         O24       1.0000    0.72450   0.37130   0.02810   Biso      1.000     O          -0.671609           
         O25       1.0000    0.94580   0.54030   0.92457   Biso      1.000     O          -0.695543           
         O26       1.0000    0.05370   0.39000   0.88944   Biso      1.000     O          -0.623067           
         O27       1.0000    0.08980   0.14400   0.05696   Biso      1.000     O          -0.618779           
         O28       1.0000    0.36970   0.38240   0.94212   Biso      1.000     O          -0.5880449999999999           
         O29       1.0000    0.83960   0.21480   0.00386   Biso      1.000     O          -0.6556930000000001           
         O30       1.0000    0.44840   0.88270   0.43417   Biso      1.000     O          -0.6005520000000001           
         O31       1.0000    0.77550   0.62870   0.52810   Biso      1.000     O          -0.671618           
         O32       1.0000    0.13620   0.53910   0.56098   Biso      1.000     O          -0.577253 