
##########################################################################
#               Crystallographic Information Format file
#               Produced by PyCifRW module
#
#  This is a CIF file.  CIF has been adopted by the International
#  Union of Crystallography as the standard for data archiving and
#  transmission.
#
#  For information on this file format, follow the CIF links at
#  http://www.iucr.org
##########################################################################

data_image0

_cell_length_a                          10.126
_cell_length_b                          15.9892
_cell_length_c                          15.9892
_cell_angle_alpha                       64.3321
_cell_angle_beta                        77.8131
_cell_angle_gamma                       102.187
_symmetry_space_group_name_H-M          'P 1'
_symmetry_int_tables_number             1
loop_
  _symmetry_equiv_pos_as_xyz
         'x, y, z' 
loop_
  _atom_site_label
  _atom_site_occupancy
  _atom_site_fract_x
  _atom_site_fract_y
  _atom_site_fract_z
  _atom_site_thermal_displace_type
  _atom_site_B_iso_or_equiv
  _atom_site_type_symbol
  _atom_site_charge
         C1        1.0000    0.32670   0.11560   0.56190   Biso      1.000     C          0.066276  
         C2        1.0000    0.53540   0.22150   0.43650   Biso      1.000     C          0.080391  
         C3        1.0000    0.49490   0.30210   0.42320   Biso      1.000     C          -0.176227           
         C4        1.0000    0.58900   0.67140   0.31490   Biso      1.000     C          -0.522633           
         C5        1.0000    0.58360   0.38910   0.88870   Biso      1.000     C          0.067831  
         C6        1.0000    0.66450   0.34300   0.85730   Biso      1.000     C          -0.127626           
         C7        1.0000    0.76680   0.31840   0.89930   Biso      1.000     C          -0.138352           
         C8        1.0000    0.79130   0.34220   0.96840   Biso      1.000     C          0.138563  
         C9        1.0000    0.70680   0.39120   0.99550   Biso      1.000     C          0.087235  
         C10       1.0000    0.71880   0.42650   0.06530   Biso      1.000     C          0.214413  
         C11       1.0000    0.77520   0.46810   0.16300   Biso      1.000     C          0.229689  
         C12       1.0000    0.84260   0.48180   0.23130   Biso      1.000     C          0.085592  
         C13       1.0000    0.83180   0.55350   0.25560   Biso      1.000     C          -0.18496  
         C14       1.0000    0.88860   0.56190   0.32250   Biso      1.000     C          0.069309  
         C15       1.0000    0.97190   0.43650   0.34200   Biso      1.000     C          0.08102   
         C16       1.0000    0.91810   0.42320   0.27470   Biso      1.000     C          -0.176081           
         C17       1.0000    0.27830   0.19090   0.55350   Biso      1.000     C          -0.181288           
         C18       1.0000    0.36080   0.28690   0.48180   Biso      1.000     C          0.085547  
         C19       1.0000    0.30710   0.36890   0.46810   Biso      1.000     C          0.230661  
         C20       1.0000    0.29230   0.50820   0.42650   Biso      1.000     C          0.216145  
         C21       1.0000    0.91760   0.01370   0.67140   Biso      1.000     C          -0.524592           
         C22       1.0000    0.19280   0.27470   0.30210   Biso      1.000     C          -0.174233           
         C23       1.0000    0.31390   0.34200   0.22150   Biso      1.000     C          0.076628  
         C24       1.0000    0.21110   0.32250   0.11560   Biso      1.000     C          0.065939  
         C25       1.0000    0.08740   0.25560   0.19090   Biso      1.000     C          -0.181467           
         C26       1.0000    0.07390   0.23130   0.28690   Biso      1.000     C          0.084439  
         C27       1.0000    0.93820   0.16300   0.36890   Biso      1.000     C          0.230282  
         C28       1.0000    0.90390   0.31490   0.01370   Biso      1.000     C          -0.524604           
         C29       1.0000    0.78410   0.06530   0.50820   Biso      1.000     C          0.216932  
         C30       1.0000    0.75970   0.96840   0.68940   Biso      1.000     C          0.140041  
         C31       1.0000    0.66610   0.89930   0.78230   Biso      1.000     C          -0.135533           
         C32       1.0000    0.52180   0.85730   0.79970   Biso      1.000     C          -0.130467           
         C33       1.0000    0.47230   0.88870   0.72220   Biso      1.000     C          0.070941  
         C34       1.0000    0.44840   0.78230   0.31840   Biso      1.000     C          -0.130578           
         C35       1.0000    0.44910   0.68940   0.34220   Biso      1.000     C          0.135957  
         C36       1.0000    0.31560   0.61330   0.39120   Biso      1.000     C          0.08516   
         C37       1.0000    0.70230   0.99550   0.61330   Biso      1.000     C          0.083052  
         C38       1.0000    0.52770   0.11130   0.27780   Biso      1.000     C          0.070935  
         C39       1.0000    0.47820   0.14270   0.20030   Biso      1.000     C          -0.130463           
         C40       1.0000    0.33390   0.10070   0.21770   Biso      1.000     C          -0.135537           
         C41       1.0000    0.46460   0.77850   0.56350   Biso      1.000     C          0.080391  
         C42       1.0000    0.50510   0.69790   0.57680   Biso      1.000     C          -0.176227           
         C43       1.0000    0.41100   0.32860   0.68510   Biso      1.000     C          -0.522634           
         C44       1.0000    0.41640   0.61090   0.11130   Biso      1.000     C          0.067831  
         C45       1.0000    0.33550   0.65700   0.14270   Biso      1.000     C          -0.127627           
         C46       1.0000    0.23320   0.68160   0.10070   Biso      1.000     C          -0.138353           
         C47       1.0000    0.20870   0.65780   0.03160   Biso      1.000     C          0.138563  
         C48       1.0000    0.67330   0.88440   0.43810   Biso      1.000     C          0.066276  
         C49       1.0000    0.29320   0.60880   0.00450   Biso      1.000     C          0.087235  
         C50       1.0000    0.22480   0.53190   0.83700   Biso      1.000     C          0.229689  
         C51       1.0000    0.15740   0.51820   0.76870   Biso      1.000     C          0.085592  
         C52       1.0000    0.16820   0.44650   0.74440   Biso      1.000     C          -0.18496  
         C53       1.0000    0.11140   0.43810   0.67750   Biso      1.000     C          0.069309  
         C54       1.0000    0.02810   0.56350   0.65800   Biso      1.000     C          0.08102   
         C55       1.0000    0.08190   0.57680   0.72530   Biso      1.000     C          -0.176081           
         C56       1.0000    0.09610   0.68510   0.98630   Biso      1.000     C          -0.524604           
         C57       1.0000    0.28120   0.57350   0.93470   Biso      1.000     C          0.214413  
         C58       1.0000    0.19450   0.72220   0.38910   Biso      1.000     C          0.070194  
         C59       1.0000    0.72170   0.80910   0.44650   Biso      1.000     C          -0.181288           
         C60       1.0000    0.69290   0.63110   0.53190   Biso      1.000     C          0.230661  
         C61       1.0000    0.24030   0.03160   0.31060   Biso      1.000     C          0.140046  
         C62       1.0000    0.29770   0.00450   0.38670   Biso      1.000     C          0.083051  
         C63       1.0000    0.21590   0.93470   0.49180   Biso      1.000     C          0.216933  
         C64       1.0000    0.06180   0.83700   0.63110   Biso      1.000     C          0.230282  
         C65       1.0000    0.92610   0.76870   0.71310   Biso      1.000     C          0.084436  
         C66       1.0000    0.91260   0.74440   0.80910   Biso      1.000     C          -0.181475           
         C67       1.0000    0.78890   0.67750   0.88440   Biso      1.000     C          0.06595   
         C68       1.0000    0.63920   0.71310   0.51820   Biso      1.000     C          0.085547  
         C69       1.0000    0.68610   0.65800   0.77850   Biso      1.000     C          0.076624  
         C70       1.0000    0.08240   0.98630   0.32860   Biso      1.000     C          -0.524592           
         C71       1.0000    0.80550   0.27780   0.61090   Biso      1.000     C          0.070193  
         C72       1.0000    0.67850   0.20030   0.65700   Biso      1.000     C          -0.133608           
         C73       1.0000    0.55160   0.21770   0.68160   Biso      1.000     C          -0.130577           
         C74       1.0000    0.55090   0.31060   0.65780   Biso      1.000     C          0.135957  
         C75       1.0000    0.68440   0.38670   0.60880   Biso      1.000     C          0.085161  
         C76       1.0000    0.70770   0.49180   0.57350   Biso      1.000     C          0.216144  
         C77       1.0000    0.80720   0.72530   0.69790   Biso      1.000     C          -0.174227           
         C78       1.0000    0.32150   0.79970   0.34300   Biso      1.000     C          -0.133606           
         Co1       1.0000    0.50000   0.00000   0.50000   Biso      1.000     Co          0.34385   
         Co2       1.0000    0.00000   0.50000   0.50000   Biso      1.000     Co          0.344899  
         Co3       1.0000    0.50000   0.50000   0.00000   Biso      1.000     Co          0.347361  
         H1        1.0000    0.00340   0.65380   0.03750   Biso      1.000     H          0.165926  
         H2        1.0000    0.02190   0.39610   0.37090   Biso      1.000     H          0.088563  
         H3        1.0000    0.87930   0.61090   0.33760   Biso      1.000     H          0.089867  
         H4        1.0000    0.78540   0.59650   0.22600   Biso      1.000     H          0.123638  
         H5        1.0000    0.81990   0.28480   0.88010   Biso      1.000     H          0.119649  
         H6        1.0000    0.65100   0.32840   0.80880   Biso      1.000     H          0.113193  
         H7        1.0000    0.51190   0.40340   0.86280   Biso      1.000     H          0.094179  
         H8        1.0000    0.63600   0.70910   0.24460   Biso      1.000     H          0.164332  
         H9        1.0000    0.65040   0.69130   0.34620   Biso      1.000     H          0.164946  
         H10       1.0000    0.56890   0.60230   0.33700   Biso      1.000     H          0.168533  
         H11       1.0000    0.55680   0.36570   0.37550   Biso      1.000     H          0.126206  
         H12       1.0000    0.62580   0.23300   0.39610   Biso      1.000     H          0.088449  
         H13       1.0000    0.11940   0.75540   0.95370   Biso      1.000     H          0.164688  
         H14       1.0000    0.18890   0.17750   0.59650   Biso      1.000     H          0.1223    
         H15       1.0000    0.53510   0.83510   0.28480   Biso      1.000     H          0.117995  
         H16       1.0000    0.32260   0.86280   0.32840   Biso      1.000     H          0.114914  
         H17       1.0000    0.10850   0.73380   0.40340   Biso      1.000     H          0.093672  
         H18       1.0000    0.92690   0.04630   0.70910   Biso      1.000     H          0.164489  
         H19       1.0000    0.95910   0.96250   0.69130   Biso      1.000     H          0.165559  
         H20       1.0000    0.96660   0.06070   0.60230   Biso      1.000     H          0.168801  
         H21       1.0000    0.19110   0.25880   0.36570   Biso      1.000     H          0.12588   
         H22       1.0000    0.39280   0.37090   0.23300   Biso      1.000     H          0.089965  
         H23       1.0000    0.21690   0.33760   0.05150   Biso      1.000     H          0.091206  
         H24       1.0000    0.01140   0.22600   0.17750   Biso      1.000     H          0.122492  
         H25       1.0000    0.70000   0.88010   0.83510   Biso      1.000     H          0.119298  
         H26       1.0000    0.45980   0.80880   0.86280   Biso      1.000     H          0.11302   
         H27       1.0000    0.37470   0.86280   0.73380   Biso      1.000     H          0.094004  
         H28       1.0000    0.93230   0.37550   0.25880   Biso      1.000     H          0.126421  
         H29       1.0000    0.90590   0.33700   0.06070   Biso      1.000     H          0.169225  
         H30       1.0000    0.26840   0.05150   0.61090   Biso      1.000     H          0.091102  
         H31       1.0000    0.88060   0.24460   0.04630   Biso      1.000     H          0.164688  
         H32       1.0000    0.99660   0.34620   0.96250   Biso      1.000     H          0.165926  
         H33       1.0000    0.06770   0.62450   0.74120   Biso      1.000     H          0.126421  
         H34       1.0000    0.97810   0.60390   0.62910   Biso      1.000     H          0.088563  
         H35       1.0000    0.12070   0.38910   0.66240   Biso      1.000     H          0.089867  
         H36       1.0000    0.21460   0.40350   0.77400   Biso      1.000     H          0.123638  
         H37       1.0000    0.18010   0.71520   0.11990   Biso      1.000     H          0.119649  
         H38       1.0000    0.34900   0.67160   0.19120   Biso      1.000     H          0.113192  
         H39       1.0000    0.48810   0.59660   0.13720   Biso      1.000     H          0.094179  
         H40       1.0000    0.36400   0.29090   0.75540   Biso      1.000     H          0.164332  
         H41       1.0000    0.34960   0.30870   0.65380   Biso      1.000     H          0.164946  
         H42       1.0000    0.43110   0.39770   0.66300   Biso      1.000     H          0.168532  
         H43       1.0000    0.44320   0.63430   0.62450   Biso      1.000     H          0.126206  
         H44       1.0000    0.37420   0.76700   0.60390   Biso      1.000     H          0.088449  
         H45       1.0000    0.73160   0.94850   0.38910   Biso      1.000     H          0.091102  
         H46       1.0000    0.09410   0.66300   0.93930   Biso      1.000     H          0.169225  
         H47       1.0000    0.46490   0.16490   0.71520   Biso      1.000     H          0.117995  
         H48       1.0000    0.81110   0.82250   0.40350   Biso      1.000     H          0.1223    
         H49       1.0000    0.54020   0.19120   0.13720   Biso      1.000     H          0.11302   
         H50       1.0000    0.30000   0.11990   0.16490   Biso      1.000     H          0.119298  
         H51       1.0000    0.98860   0.77400   0.82250   Biso      1.000     H          0.122492  
         H52       1.0000    0.78310   0.66240   0.94850   Biso      1.000     H          0.091205  
         H53       1.0000    0.60720   0.62910   0.76700   Biso      1.000     H          0.089965  
         H54       1.0000    0.62530   0.13720   0.26620   Biso      1.000     H          0.094004  
         H55       1.0000    0.03340   0.93930   0.39770   Biso      1.000     H          0.168802  
         H56       1.0000    0.04090   0.03750   0.30870   Biso      1.000     H          0.165559  
         H57       1.0000    0.07310   0.95370   0.29090   Biso      1.000     H          0.16449   
         H58       1.0000    0.89150   0.26620   0.59660   Biso      1.000     H          0.093672  
         H59       1.0000    0.80890   0.74120   0.63430   Biso      1.000     H          0.12588   
         H60       1.0000    0.67740   0.13720   0.67160   Biso      1.000     H          0.114913  
         N1        1.0000    0.32499   0.49169   0.85922   Biso      1.000     N          -0.283495           
         N2        1.0000    0.28498   0.92246   0.55702   Biso      1.000     N          -0.165147           
         N3        1.0000    0.18421   0.85922   0.64909   Biso      1.000     N          -0.285139           
         N4        1.0000    0.07380   0.88080   0.53480   Biso      1.000     N          -0.398185           
         N5        1.0000    0.67440   0.63160   0.87120   Biso      1.000     N          -0.196288           
         N6        1.0000    0.80920   0.36940   0.58610   Biso      1.000     N          -0.204299           
         N7        1.0000    0.60860   0.53480   0.58440   Biso      1.000     N          -0.397684           
         N8        1.0000    0.83330   0.64909   0.49169   Biso      1.000     N          -0.28696  
         N9        1.0000    0.54560   0.87120   0.49720   Biso      1.000     N          -0.198136           
         N10       1.0000    0.39530   0.58610   0.04450   Biso      1.000     N          -0.204998           
         N11       1.0000    0.36252   0.52052   0.92246   Biso      1.000     N          -0.165446           
         N12       1.0000    0.43980   0.04450   0.36940   Biso      1.000     N          -0.204254           
         N13       1.0000    0.84200   0.55702   0.52052   Biso      1.000     N          -0.163123           
         N14       1.0000    0.95720   0.50280   0.36840   Biso      1.000     N          -0.19963  
         N15       1.0000    0.16670   0.35091   0.50831   Biso      1.000     N          -0.286959           
         N16       1.0000    0.67501   0.50831   0.14078   Biso      1.000     N          -0.283495           
         N17       1.0000    0.63748   0.47948   0.07754   Biso      1.000     N          -0.165446           
         N18       1.0000    0.60470   0.41390   0.95550   Biso      1.000     N          -0.204998           
         N19       1.0000    0.45440   0.12880   0.50280   Biso      1.000     N          -0.198135           
         N20       1.0000    0.39140   0.46520   0.41560   Biso      1.000     N          -0.397684           
         N21       1.0000    0.15800   0.44298   0.47948   Biso      1.000     N          -0.163123           
         N22       1.0000    0.19080   0.63060   0.41390   Biso      1.000     N          -0.204299           
         N23       1.0000    0.32560   0.36840   0.12880   Biso      1.000     N          -0.196288           
         N24       1.0000    0.92620   0.11920   0.46520   Biso      1.000     N          -0.398185           
         N25       1.0000    0.81579   0.14078   0.35091   Biso      1.000     N          -0.285147           
         N26       1.0000    0.71502   0.07754   0.44298   Biso      1.000     N          -0.165138           
         N27       1.0000    0.56020   0.95550   0.63060   Biso      1.000     N          -0.204255           
         N28       1.0000    0.19300   0.58440   0.88080   Biso      1.000     N          -0.397772           
         N29       1.0000    0.80700   0.41560   0.11920   Biso      1.000     N          -0.397772           
         N30       1.0000    0.04280   0.49720   0.63160   Biso      1.000     N          -0.199631 