
##########################################################################
#               Crystallographic Information Format file
#               Produced by PyCifRW module
#
#  This is a CIF file.  CIF has been adopted by the International
#  Union of Crystallography as the standard for data archiving and
#  transmission.
#
#  For information on this file format, follow the CIF links at
#  http://www.iucr.org
##########################################################################

data_image0

_cell_length_a                          9.285
_cell_length_b                          10.3698
_cell_length_c                          11.735
_cell_angle_alpha                       96.809
_cell_angle_beta                        93.262
_cell_angle_gamma                       111.427
_symmetry_space_group_name_H-M          'P 1'
_symmetry_int_tables_number             1
loop_
  _symmetry_equiv_pos_as_xyz
         'x, y, z' 
loop_
  _atom_site_label
  _atom_site_occupancy
  _atom_site_fract_x
  _atom_site_fract_y
  _atom_site_fract_z
  _atom_site_thermal_displace_type
  _atom_site_B_iso_or_equiv
  _atom_site_type_symbol
  _atom_site_charge
         C1        1.0000    0.49130   0.86540   0.50320   Biso      1.000     C          -0.108216           
         C2        1.0000    0.07940   0.06770   0.10630   Biso      1.000     C          -0.088112           
         C3        1.0000    0.96160   0.07540   0.92130   Biso      1.000     C          -0.102338           
         C4        1.0000    0.43560   0.95400   0.09760   Biso      1.000     C          -0.101677           
         C5        1.0000    0.56440   0.04600   0.90240   Biso      1.000     C          -0.101677           
         C6        1.0000    0.53720   0.09150   0.10190   Biso      1.000     C          -0.103578           
         C7        1.0000    0.60290   0.13900   0.00380   Biso      1.000     C          -0.021741999999999997         
         C8        1.0000    0.71610   0.28530   0.00750   Biso      1.000     C          0.663363  
         C9        1.0000    0.73880   0.23200   0.64840   Biso      1.000     C          0.586753  
         C10       1.0000    0.39600   0.02390   0.42480   Biso      1.000     C          -0.108677           
         C11       1.0000    0.61360   0.11090   0.57170   Biso      1.000     C          -0.008248           
         C12       1.0000    0.04170   0.14500   0.02820   Biso      1.000     C          -0.020506           
         C13       1.0000    0.38640   0.88910   0.42830   Biso      1.000     C          -0.008239           
         C14       1.0000    0.07700   0.29660   0.06420   Biso      1.000     C          0.632985  
         C15       1.0000    0.50870   0.13460   0.49680   Biso      1.000     C          -0.108207           
         C16       1.0000    0.03840   0.92460   0.07870   Biso      1.000     C          -0.102338           
         C17       1.0000    0.46280   0.90850   0.89810   Biso      1.000     C          -0.103578           
         C18       1.0000    0.92060   0.93230   0.89370   Biso      1.000     C          -0.088111           
         C19       1.0000    0.95830   0.85500   0.97180   Biso      1.000     C          -0.020506           
         C20       1.0000    0.92300   0.70340   0.93580   Biso      1.000     C          0.632985  
         C21       1.0000    0.60400   0.97610   0.57520   Biso      1.000     C          -0.10866500000000001          
         C22       1.0000    0.26120   0.76800   0.35160   Biso      1.000     C          0.586752  
         C23       1.0000    0.28390   0.71470   0.99250   Biso      1.000     C          0.663363  
         C24       1.0000    0.39710   0.86100   0.99620   Biso      1.000     C          -0.021741999999999997         
         Ce1       1.0000    0.97088   0.45034   0.81832   Biso      1.000     Ce          2.066127  
         Ce2       1.0000    0.02912   0.54966   0.18168   Biso      1.000     Ce          2.066127  
         H1        1.0000    0.51380   0.22550   0.49470   Biso      1.000     H          0.120752  
         H2        1.0000    0.13300   0.11310   0.17800   Biso      1.000     H          0.1241    
         H3        1.0000    0.43820   0.84730   0.82890   Biso      1.000     H          0.11468800000000001           
         H4        1.0000    0.67330   0.95920   0.62610   Biso      1.000     H          0.12086300000000001           
         H5        1.0000    0.93550   0.12530   0.86820   Biso      1.000     H          0.11114600000000001           
         H6        1.0000    0.60720   0.07600   0.83590   Biso      1.000     H          0.113389  
         H7        1.0000    0.06450   0.87470   0.13180   Biso      1.000     H          0.11114600000000001           
         H8        1.0000    0.86700   0.88690   0.82200   Biso      1.000     H          0.1241    
         H9        1.0000    0.48620   0.77450   0.50530   Biso      1.000     H          0.120753  
         H10       1.0000    0.32670   0.04080   0.37390   Biso      1.000     H          0.12086400000000001           
         H11       1.0000    0.56180   0.15270   0.17110   Biso      1.000     H          0.11468800000000001           
         H12       1.0000    0.39280   0.92400   0.16410   Biso      1.000     H          0.113389  
         O1        1.0000    0.12720   0.35090   0.16670   Biso      1.000     O          -0.5993109999999999           
         O2        1.0000    0.84610   0.20830   0.70090   Biso      1.000     O          -0.6754399999999999           
         O3        1.0000    0.25960   0.66910   0.08700   Biso      1.000     O          -0.631361           
         O4        1.0000    0.73000   0.35030   0.66030   Biso      1.000     O          -0.631225           
         O5        1.0000    0.74040   0.33090   0.91300   Biso      1.000     O          -0.631361           
         O6        1.0000    0.77860   0.35290   0.10660   Biso      1.000     O          -0.706104           
         O7        1.0000    0.27000   0.64970   0.33970   Biso      1.000     O          -0.631225           
         O8        1.0000    0.15390   0.79170   0.29910   Biso      1.000     O          -0.6754399999999999           
         O9        1.0000    0.87280   0.64910   0.83330   Biso      1.000     O          -0.5993109999999999           
         O10       1.0000    0.95100   0.63260   0.00940   Biso      1.000     O          -0.7476470000000001           
         O11       1.0000    0.04900   0.36740   0.99060   Biso      1.000     O          -0.7476470000000001           
         O12       1.0000    0.22140   0.64710   0.89340   Biso      1.000     O          -0.706104 