
##########################################################################
#               Crystallographic Information Format file
#               Produced by PyCifRW module
#
#  This is a CIF file.  CIF has been adopted by the International
#  Union of Crystallography as the standard for data archiving and
#  transmission.
#
#  For information on this file format, follow the CIF links at
#  http://www.iucr.org
##########################################################################

data_image0

_cell_length_a                          9.0879
_cell_length_b                          16.3372
_cell_length_c                          16.3372
_cell_angle_alpha                       63.3572
_cell_angle_beta                        79.3141
_cell_angle_gamma                       100.686
_symmetry_space_group_name_H-M          'P 1'
_symmetry_int_tables_number             1
loop_
  _symmetry_equiv_pos_as_xyz
         'x, y, z' 
loop_
  _atom_site_label
  _atom_site_occupancy
  _atom_site_fract_x
  _atom_site_fract_y
  _atom_site_fract_z
  _atom_site_thermal_displace_type
  _atom_site_B_iso_or_equiv
  _atom_site_type_symbol
  _atom_site_charge
         C1        1.0000    0.04740   0.88100   0.78620   Biso      1.000     C          -0.149707           
         C2        1.0000    0.69366   0.71132   0.38794   Biso      1.000     C          0.071326  
         C3        1.0000    0.39505   0.56281   0.32716   Biso      1.000     C          0.065075  
         C4        1.0000    0.48380   0.43358   0.35828   Biso      1.000     C          0.068819  
         C5        1.0000    0.43830   0.42618   0.28458   Biso      1.000     C          -0.17377  
         C6        1.0000    0.98234   0.90074   0.71132   Biso      1.000     C          0.07222   
         C7        1.0000    0.20180   0.92670   0.76770   Biso      1.000     C          -0.049446           
         C8        1.0000    0.83360   0.78620   0.33280   Biso      1.000     C          -0.149592           
         C9        1.0000    0.29410   0.98930   0.67430   Biso      1.000     C          -0.16448  
         C10       1.0000    0.30841   0.06958   0.49895   Biso      1.000     C          0.209117  
         C11       1.0000    0.46162   0.16088   0.36252   Biso      1.000     C          0.23260300000000003           
         C12       1.0000    0.59820   0.23285   0.27915   Biso      1.000     C          0.08538   
         C13       1.0000    0.60133   0.25525   0.18596   Biso      1.000     C          -0.184635           
         C14       1.0000    0.72221   0.32716   0.11003   Biso      1.000     C          0.064773  
         C15       1.0000    0.84208   0.35828   0.20814   Biso      1.000     C          0.067504  
         C16       1.0000    0.22421   0.00697   0.60164   Biso      1.000     C          0.164805  
         C17       1.0000    0.72288   0.28458   0.28924   Biso      1.000     C          -0.175491           
         C18       1.0000    0.96950   0.76770   0.30560   Biso      1.000     C          -0.052878999999999995         
         C19       1.0000    0.82585   0.60164   0.39139   Biso      1.000     C          0.16276500000000002           
         C20       1.0000    0.30074   0.47660   0.16088   Biso      1.000     C          0.23459699999999997           
         C21       1.0000    0.23883   0.43147   0.06958   Biso      1.000     C          0.2091    
         C22       1.0000    0.21724   0.39139   0.00697   Biso      1.000     C          0.163682  
         C23       1.0000    0.30480   0.33640   0.98930   Biso      1.000     C          -0.16329200000000002          
         C24       1.0000    0.27510   0.30560   0.92670   Biso      1.000     C          -0.049789           
         C25       1.0000    0.16640   0.33280   0.88100   Biso      1.000     C          -0.149981           
         C26       1.0000    0.96840   0.67430   0.33640   Biso      1.000     C          -0.161834           
         C27       1.0000    0.08160   0.38794   0.90074   Biso      1.000     C          0.072577  
         C28       1.0000    0.05022   0.20814   0.43358   Biso      1.000     C          0.067209  
         C29       1.0000    0.83224   0.11003   0.56281   Biso      1.000     C          0.06460700000000001           
         C30       1.0000    0.78729   0.18596   0.55879   Biso      1.000     C          -0.18319000000000002          
         C31       1.0000    0.87735   0.27915   0.48800   Biso      1.000     C          0.087213  
         C32       1.0000    0.82414   0.36252   0.47660   Biso      1.000     C          0.230787  
         C33       1.0000    0.80736   0.49895   0.43147   Biso      1.000     C          0.20845500000000003           
         C34       1.0000    0.01212   0.28924   0.42618   Biso      1.000     C          -0.1761   
         C35       1.0000    0.30634   0.28868   0.61206   Biso      1.000     C          0.071326  
         C36       1.0000    0.16640   0.21380   0.66720   Biso      1.000     C          -0.149592           
         C37       1.0000    0.03050   0.23230   0.69440   Biso      1.000     C          -0.052878999999999995         
         C38       1.0000    0.51620   0.56642   0.64172   Biso      1.000     C          0.068819  
         C39       1.0000    0.56170   0.57382   0.71542   Biso      1.000     C          -0.173769           
         C40       1.0000    0.01766   0.09926   0.28868   Biso      1.000     C          0.07222   
         C41       1.0000    0.95260   0.11900   0.21380   Biso      1.000     C          -0.149706           
         C42       1.0000    0.79820   0.07330   0.23230   Biso      1.000     C          -0.049446           
         C43       1.0000    0.70590   0.01070   0.32570   Biso      1.000     C          -0.164481           
         C44       1.0000    0.60495   0.43719   0.67284   Biso      1.000     C          0.065076  
         C45       1.0000    0.77579   0.99303   0.39836   Biso      1.000     C          0.164805  
         C46       1.0000    0.53838   0.83912   0.63748   Biso      1.000     C          0.232602  
         C47       1.0000    0.40180   0.76715   0.72085   Biso      1.000     C          0.08538   
         C48       1.0000    0.39867   0.74475   0.81404   Biso      1.000     C          -0.184635           
         C49       1.0000    0.27779   0.67284   0.88997   Biso      1.000     C          0.064774  
         C50       1.0000    0.15792   0.64172   0.79186   Biso      1.000     C          0.067504  
         C51       1.0000    0.27712   0.71542   0.71076   Biso      1.000     C          -0.175491           
         C52       1.0000    0.69159   0.93042   0.50105   Biso      1.000     C          0.20911799999999997           
         C53       1.0000    0.65392   0.44121   0.74475   Biso      1.000     C          -0.185807           
         C54       1.0000    0.63465   0.51200   0.76715   Biso      1.000     C          0.082675  
         C55       1.0000    0.69926   0.52340   0.83912   Biso      1.000     C          0.234596  
         C56       1.0000    0.03160   0.32570   0.66360   Biso      1.000     C          -0.161834           
         C57       1.0000    0.17415   0.39836   0.60861   Biso      1.000     C          0.16276500000000002           
         C58       1.0000    0.19264   0.50105   0.56853   Biso      1.000     C          0.20845500000000003           
         C59       1.0000    0.17586   0.63748   0.52340   Biso      1.000     C          0.230787  
         C60       1.0000    0.12265   0.72085   0.51200   Biso      1.000     C          0.087214  
         C61       1.0000    0.21271   0.81404   0.44121   Biso      1.000     C          -0.183204           
         C62       1.0000    0.16776   0.88997   0.43719   Biso      1.000     C          0.064621  
         C63       1.0000    0.94978   0.79186   0.56642   Biso      1.000     C          0.067209  
         C64       1.0000    0.98788   0.71076   0.57382   Biso      1.000     C          -0.1761   
         C65       1.0000    0.91840   0.61206   0.09926   Biso      1.000     C          0.072578  
         C66       1.0000    0.83360   0.66720   0.11900   Biso      1.000     C          -0.149988           
         C67       1.0000    0.72490   0.69440   0.07330   Biso      1.000     C          -0.049785           
         C68       1.0000    0.69520   0.66360   0.01070   Biso      1.000     C          -0.16328900000000002          
         C69       1.0000    0.78276   0.60861   0.99303   Biso      1.000     C          0.163682  
         C70       1.0000    0.76117   0.56853   0.93042   Biso      1.000     C          0.209101  
         C71       1.0000    0.36535   0.48800   0.23285   Biso      1.000     C          0.082674  
         C72       1.0000    0.34608   0.55879   0.25525   Biso      1.000     C          -0.185807           
         Fe1       1.0000    0.50000   0.50000   0.50000   Biso      1.000     Fe          0.245547  
         Fe2       1.0000    0.00000   0.50000   0.00000   Biso      1.000     Fe          0.24680500000000002           
         Fe3       1.0000    0.00000   0.00000   0.50000   Biso      1.000     Fe          0.246665  
         H1        1.0000    0.07420   0.60700   0.78360   Biso      1.000     H          0.096635  
         H2        1.0000    0.40050   0.01900   0.65990   Biso      1.000     H          0.13763599999999998           
         H3        1.0000    0.24400   0.91560   0.81810   Biso      1.000     H          0.10631700000000001           
         H4        1.0000    0.98560   0.83650   0.84910   Biso      1.000     H          0.114683  
         H5        1.0000    0.87680   0.87000   0.72480   Biso      1.000     H          0.09300499999999999           
         H6        1.0000    0.45750   0.37920   0.27060   Biso      1.000     H          0.128056  
         H7        1.0000    0.53280   0.39060   0.39300   Biso      1.000     H          0.096463  
         H8        1.0000    0.38280   0.61190   0.33950   Biso      1.000     H          0.09287100000000001           
         H9        1.0000    0.29940   0.60350   0.22070   Biso      1.000     H          0.125853  
         H10       1.0000    0.38150   0.32110   0.01900   Biso      1.000     H          0.137547  
         H11       1.0000    0.32840   0.26630   0.91560   Biso      1.000     H          0.106499  
         H12       1.0000    0.14910   0.31440   0.83650   Biso      1.000     H          0.11471500000000001           
         H13       1.0000    0.27190   0.72940   0.64980   Biso      1.000     H          0.129829  
         H14       1.0000    0.07830   0.35020   0.37920   Biso      1.000     H          0.12956600000000001           
         H15       1.0000    0.14220   0.21640   0.39060   Biso      1.000     H          0.096889  
         H16       1.0000    0.77090   0.04860   0.61190   Biso      1.000     H          0.092761  
         H17       1.0000    0.69590   0.17580   0.60350   Biso      1.000     H          0.122852  
         H18       1.0000    0.06040   0.65990   0.32110   Biso      1.000     H          0.136864  
         H19       1.0000    0.06210   0.81810   0.26630   Biso      1.000     H          0.108405  
         H20       1.0000    0.83470   0.84910   0.31440   Biso      1.000     H          0.114851  
         H21       1.0000    0.60160   0.72480   0.40520   Biso      1.000     H          0.09465   
         H22       1.0000    0.52010   0.22070   0.17580   Biso      1.000     H          0.123779  
         H23       1.0000    0.72230   0.33950   0.04860   Biso      1.000     H          0.09353600000000001           
         H24       1.0000    0.00680   0.40520   0.87000   Biso      1.000     H          0.0934    
         H25       1.0000    0.72810   0.27060   0.35020   Biso      1.000     H          0.129829  
         H26       1.0000    0.92580   0.39300   0.21640   Biso      1.000     H          0.096635  
         H27       1.0000    0.27770   0.66050   0.95140   Biso      1.000     H          0.09353600000000001           
         H28       1.0000    0.47990   0.77930   0.82420   Biso      1.000     H          0.12378   
         H29       1.0000    0.59950   0.98100   0.34010   Biso      1.000     H          0.13763599999999998           
         H30       1.0000    0.75600   0.08440   0.18190   Biso      1.000     H          0.10631700000000001           
         H31       1.0000    0.12320   0.13000   0.27520   Biso      1.000     H          0.09300499999999999           
         H32       1.0000    0.54250   0.62080   0.72940   Biso      1.000     H          0.128056  
         H33       1.0000    0.46720   0.60940   0.60700   Biso      1.000     H          0.096463  
         H34       1.0000    0.61720   0.38810   0.66050   Biso      1.000     H          0.09287100000000001           
         H35       1.0000    0.70060   0.39650   0.77930   Biso      1.000     H          0.125853  
         H36       1.0000    0.61850   0.67890   0.98100   Biso      1.000     H          0.137547  
         H37       1.0000    0.01440   0.16350   0.15090   Biso      1.000     H          0.114684  
         H38       1.0000    0.85090   0.68560   0.16350   Biso      1.000     H          0.11471600000000001           
         H39       1.0000    0.99320   0.59480   0.13000   Biso      1.000     H          0.093401  
         H40       1.0000    0.92170   0.64980   0.62080   Biso      1.000     H          0.12956600000000001           
         H41       1.0000    0.85780   0.78360   0.60940   Biso      1.000     H          0.096889  
         H42       1.0000    0.22910   0.95140   0.38810   Biso      1.000     H          0.09276000000000001           
         H43       1.0000    0.30410   0.82420   0.39650   Biso      1.000     H          0.122853  
         H44       1.0000    0.93960   0.34010   0.67890   Biso      1.000     H          0.136864  
         H45       1.0000    0.39840   0.27520   0.59480   Biso      1.000     H          0.09465   
         H46       1.0000    0.93790   0.18190   0.73370   Biso      1.000     H          0.10840599999999999           
         H47       1.0000    0.16530   0.15090   0.68560   Biso      1.000     H          0.114851  
         H48       1.0000    0.67160   0.73370   0.08440   Biso      1.000     H          0.106499  
         N1        1.0000    0.03978   0.88147   0.50003   Biso      1.000     N          -0.140438           
         N2        1.0000    0.32555   0.65137   0.47822   Biso      1.000     N          -0.296105           
         N3        1.0000    0.89346   0.58279   0.03591   Biso      1.000     N          -0.176484           
         N4        1.0000    0.33414   0.55997   0.51015   Biso      1.000     N          -0.156906           
         N5        1.0000    0.08650   0.54472   0.58052   Biso      1.000     N          -0.418808           
         N6        1.0000    0.84429   0.51015   0.92988   Biso      1.000     N          -0.157593           
         N7        1.0000    0.92937   0.03591   0.38130   Biso      1.000     N          -0.17591400000000001          
         N8        1.0000    0.66702   0.58052   0.87476   Biso      1.000     N          -0.419279           
         N9        1.0000    0.53981   0.50003   0.61850   Biso      1.000     N          -0.14144500000000002          
         N10       1.0000    0.77417   0.92988   0.55997   Biso      1.000     N          -0.158223           
         N11       1.0000    0.67418   0.87041   0.65137   Biso      1.000     N          -0.296137           
         N12       1.0000    0.31067   0.38130   0.58279   Biso      1.000     N          -0.175995           
         N13       1.0000    0.80377   0.47822   0.87041   Biso      1.000     N          -0.29732800000000004          
         N14       1.0000    0.84169   0.38150   0.11853   Biso      1.000     N          -0.141807           
         N15       1.0000    0.67445   0.34863   0.52178   Biso      1.000     N          -0.296105           
         N16       1.0000    0.32582   0.12959   0.34863   Biso      1.000     N          -0.296144           
         N17       1.0000    0.22583   0.07012   0.44003   Biso      1.000     N          -0.15821500000000002          
         N18       1.0000    0.07063   0.96409   0.61870   Biso      1.000     N          -0.17591400000000001          
         N19       1.0000    0.46019   0.49997   0.38150   Biso      1.000     N          -0.14144500000000002          
         N20       1.0000    0.33298   0.41948   0.12524   Biso      1.000     N          -0.419279           
         N21       1.0000    0.19623   0.52178   0.12959   Biso      1.000     N          -0.297336           
         N22       1.0000    0.15571   0.48985   0.07012   Biso      1.000     N          -0.157584           
         N23       1.0000    0.10654   0.41721   0.96409   Biso      1.000     N          -0.176485           
         N24       1.0000    0.96022   0.11853   0.49997   Biso      1.000     N          -0.14043699999999998          
         N25       1.0000    0.91350   0.45528   0.41948   Biso      1.000     N          -0.418808           
         N26       1.0000    0.66586   0.44003   0.48985   Biso      1.000     N          -0.156905           
         N27       1.0000    0.68933   0.61870   0.41721   Biso      1.000     N          -0.175995           
         N28       1.0000    0.54178   0.87476   0.54472   Biso      1.000     N          -0.420012           
         N29       1.0000    0.45822   0.12524   0.45528   Biso      1.000     N          -0.420012           
         N30       1.0000    0.15831   0.61850   0.88147   Biso      1.000     N          -0.141808 