
##########################################################################
#               Crystallographic Information Format file
#               Produced by PyCifRW module
#
#  This is a CIF file.  CIF has been adopted by the International
#  Union of Crystallography as the standard for data archiving and
#  transmission.
#
#  For information on this file format, follow the CIF links at
#  http://www.iucr.org
##########################################################################

data_image0

_cell_length_a                          12.3982
_cell_length_b                          18.8929
_cell_length_c                          18.8929
_cell_angle_alpha                       64.645
_cell_angle_beta                        77.3646
_cell_angle_gamma                       102.635
_symmetry_space_group_name_H-M          'P 1'
_symmetry_int_tables_number             1
loop_
  _symmetry_equiv_pos_as_xyz
         'x, y, z' 
loop_
  _atom_site_label
  _atom_site_occupancy
  _atom_site_fract_x
  _atom_site_fract_y
  _atom_site_fract_z
  _atom_site_thermal_displace_type
  _atom_site_B_iso_or_equiv
  _atom_site_type_symbol
  _atom_site_charge
         C1        1.0000    0.87959   0.54740   0.18833   Biso      1.000     C          0.237913  
         C2        1.0000    0.13049   0.09511   0.32804   Biso      1.000     C          0.20001   
         C3        1.0000    0.17845   0.06315   0.56030   Biso      1.000     C          0.069105  
         C4        1.0000    0.10484   0.16148   0.48736   Biso      1.000     C          0.060112  
         C5        1.0000    0.17616   0.22049   0.49651   Biso      1.000     C          -0.182785           
         C6        1.0000    0.03538   0.57685   0.09511   Biso      1.000     C          0.20338900000000001           
         C7        1.0000    0.15379   0.60472   0.03805   Biso      1.000     C          0.16755799999999998           
         C8        1.0000    0.06792   0.18833   0.26427   Biso      1.000     C          0.23679699999999998           
         C9        1.0000    0.25397   0.65741   0.03500   Biso      1.000     C          -0.165323           
         C10       1.0000    0.36688   0.64941   0.92137   Biso      1.000     C          -0.151998           
         C11       1.0000    0.26546   0.59708   0.92760   Biso      1.000     C          0.05053   
         C12       1.0000    0.79310   0.53953   0.26053   Biso      1.000     C          0.08944099999999999           
         C13       1.0000    0.82300   0.57178   0.30868   Biso      1.000     C          -0.176762           
         C14       1.0000    0.73875   0.56030   0.37655   Biso      1.000     C          0.070595  
         C15       1.0000    0.59220   0.48736   0.35116   Biso      1.000     C          0.064448  
         C16       1.0000    0.36149   0.67979   0.97632   Biso      1.000     C          -0.049722           
         C17       1.0000    0.67267   0.49651   0.28300   Biso      1.000     C          -0.1818   
         C18       1.0000    0.19184   0.03805   0.35723   Biso      1.000     C          0.170526  
         C19       1.0000    0.33781   0.97632   0.34389   Biso      1.000     C          -0.050863           
         C20       1.0000    0.66838   0.47532   0.59708   Biso      1.000     C          0.057991999999999995          
         C21       1.0000    0.71747   0.42922   0.64941   Biso      1.000     C          -0.14891600000000002          
         C22       1.0000    0.68170   0.34389   0.67979   Biso      1.000     C          -0.053301999999999995         
         C23       1.0000    0.59656   0.30759   0.65741   Biso      1.000     C          -0.160634           
         C24       1.0000    0.54907   0.35723   0.60472   Biso      1.000     C          0.162448  
         C25       1.0000    0.33219   0.26427   0.54740   Biso      1.000     C          0.23591900000000002           
         C26       1.0000    0.28897   0.03500   0.30759   Biso      1.000     C          -0.16786900000000002          
         C27       1.0000    0.45853   0.32804   0.57685   Biso      1.000     C          0.20030699999999999           
         C28       1.0000    0.94336   0.35116   0.16148   Biso      1.000     C          0.063568  
         C29       1.0000    0.11530   0.37655   0.06315   Biso      1.000     C          0.06866599999999999           
         C30       1.0000    0.13168   0.30868   0.11954   Biso      1.000     C          -0.176475           
         C31       1.0000    0.05363   0.26053   0.19994   Biso      1.000     C          0.08846699999999999           
         C32       1.0000    0.19306   0.92760   0.47532   Biso      1.000     C          0.062455  
         C33       1.0000    0.28825   0.92137   0.42922   Biso      1.000     C          -0.148846           
         C34       1.0000    0.95567   0.28300   0.22049   Biso      1.000     C          -0.180042           
         C35       1.0000    0.86951   0.90489   0.67196   Biso      1.000     C          0.20001   
         C36       1.0000    0.93208   0.81167   0.73573   Biso      1.000     C          0.236798  
         C37       1.0000    0.80816   0.96195   0.64277   Biso      1.000     C          0.170527  
         C38       1.0000    0.89516   0.83852   0.51264   Biso      1.000     C          0.060112  
         C39       1.0000    0.82384   0.77951   0.50349   Biso      1.000     C          -0.18278599999999998          
         C40       1.0000    0.96462   0.42315   0.90489   Biso      1.000     C          0.20339000000000002           
         C41       1.0000    0.12041   0.45260   0.81167   Biso      1.000     C          0.23791199999999998           
         C42       1.0000    0.84621   0.39528   0.96195   Biso      1.000     C          0.16755799999999998           
         C43       1.0000    0.74603   0.34259   0.96500   Biso      1.000     C          -0.165323           
         C44       1.0000    0.82155   0.93685   0.43970   Biso      1.000     C          0.069107  
         C45       1.0000    0.63851   0.32021   0.02368   Biso      1.000     C          -0.049724000000000004         
         C46       1.0000    0.73454   0.40292   0.07240   Biso      1.000     C          0.050522000000000004          
         C47       1.0000    0.20690   0.46047   0.73947   Biso      1.000     C          0.08944099999999999           
         C48       1.0000    0.17700   0.42822   0.69132   Biso      1.000     C          -0.176762           
         C49       1.0000    0.26125   0.43970   0.62345   Biso      1.000     C          0.070595  
         C50       1.0000    0.40780   0.51264   0.64884   Biso      1.000     C          0.064448  
         C51       1.0000    0.32733   0.50349   0.71700   Biso      1.000     C          -0.1818   
         C52       1.0000    0.63312   0.35059   0.07863   Biso      1.000     C          -0.15199000000000001          
         C53       1.0000    0.74878   0.88046   0.42822   Biso      1.000     C          -0.17693299999999998          
         C54       1.0000    0.74643   0.80006   0.46047   Biso      1.000     C          0.09220700000000001           
         C55       1.0000    0.33162   0.52468   0.40292   Biso      1.000     C          0.057991999999999995          
         C56       1.0000    0.71103   0.96500   0.69241   Biso      1.000     C          -0.167873           
         C57       1.0000    0.66219   0.02368   0.65611   Biso      1.000     C          -0.050858           
         C58       1.0000    0.71175   0.07863   0.57078   Biso      1.000     C          -0.148855           
         C59       1.0000    0.80694   0.07240   0.52468   Biso      1.000     C          0.062463  
         C60       1.0000    0.94637   0.73947   0.80006   Biso      1.000     C          0.088462  
         C61       1.0000    0.86832   0.69132   0.88046   Biso      1.000     C          -0.176475           
         C62       1.0000    0.88470   0.62345   0.93685   Biso      1.000     C          0.068672  
         C63       1.0000    0.05664   0.64884   0.83852   Biso      1.000     C          0.063568  
         C64       1.0000    0.04433   0.71700   0.77951   Biso      1.000     C          -0.180041           
         C65       1.0000    0.54147   0.67196   0.42315   Biso      1.000     C          0.20030799999999999           
         C66       1.0000    0.66781   0.73573   0.45260   Biso      1.000     C          0.23591700000000002           
         C67       1.0000    0.45093   0.64277   0.39528   Biso      1.000     C          0.162447  
         C68       1.0000    0.40344   0.69241   0.34259   Biso      1.000     C          -0.160637           
         C69       1.0000    0.31830   0.65611   0.32021   Biso      1.000     C          -0.053298000000000005         
         C70       1.0000    0.28253   0.57078   0.35059   Biso      1.000     C          -0.148917           
         C71       1.0000    0.25357   0.19994   0.53953   Biso      1.000     C          0.092199  
         C72       1.0000    0.25122   0.11954   0.57178   Biso      1.000     C          -0.176924           
         Fe1       1.0000    0.00000   0.00000   0.50000   Biso      1.000     Fe          0.264499  
         Fe2       1.0000    0.50000   0.50000   0.50000   Biso      1.000     Fe          0.260621  
         Fe3       1.0000    0.00000   0.50000   0.00000   Biso      1.000     Fe          0.261948  
         H1        1.0000    0.48720   0.54140   0.63500   Biso      1.000     H          0.093926  
         H2        1.0000    0.27060   0.57660   0.89050   Biso      1.000     H          0.100591  
         H3        1.0000    0.43850   0.66440   0.88080   Biso      1.000     H          0.127079  
         H4        1.0000    0.42970   0.71490   0.97360   Biso      1.000     H          0.11312   
         H5        1.0000    0.24860   0.67750   0.07240   Biso      1.000     H          0.13405899999999998           
         H6        1.0000    0.17350   0.27430   0.47430   Biso      1.000     H          0.130471  
         H7        1.0000    0.05420   0.17640   0.45860   Biso      1.000     H          0.096149  
         H8        1.0000    0.18000   0.00900   0.58250   Biso      1.000     H          0.094836  
         H9        1.0000    0.29980   0.10290   0.60200   Biso      1.000     H          0.132734  
         H10       1.0000    0.69400   0.53290   0.57660   Biso      1.000     H          0.089223  
         H11       1.0000    0.77410   0.45480   0.66440   Biso      1.000     H          0.12673199999999998           
         H12       1.0000    0.71480   0.31150   0.71490   Biso      1.000     H          0.11444800000000001           
         H13       1.0000    0.35220   0.52570   0.74860   Biso      1.000     H          0.1293    
         H14       1.0000    0.89920   0.25140   0.27430   Biso      1.000     H          0.130011  
         H15       1.0000    0.87780   0.36500   0.17640   Biso      1.000     H          0.092672  
         H16       1.0000    0.17100   0.40850   0.00900   Biso      1.000     H          0.095625  
         H17       1.0000    0.19690   0.29510   0.10290   Biso      1.000     H          0.133051  
         H18       1.0000    0.16110   0.89050   0.53290   Biso      1.000     H          0.088924  
         H19       1.0000    0.31930   0.88080   0.45480   Biso      1.000     H          0.12548499999999999           
         H20       1.0000    0.40330   0.97360   0.31150   Biso      1.000     H          0.11404700000000001           
         H21       1.0000    0.32100   0.07240   0.25010   Biso      1.000     H          0.134373  
         H22       1.0000    0.90180   0.60200   0.29510   Biso      1.000     H          0.132485  
         H23       1.0000    0.76250   0.58250   0.40850   Biso      1.000     H          0.094985  
         H24       1.0000    0.57110   0.25010   0.67750   Biso      1.000     H          0.13331400000000002           
         H25       1.0000    0.64780   0.47430   0.25140   Biso      1.000     H          0.129301  
         H26       1.0000    0.51280   0.45860   0.36500   Biso      1.000     H          0.093926  
         H27       1.0000    0.23750   0.41750   0.59150   Biso      1.000     H          0.094985  
         H28       1.0000    0.09820   0.39800   0.70490   Biso      1.000     H          0.132485  
         H29       1.0000    0.72940   0.42340   0.10950   Biso      1.000     H          0.100592  
         H30       1.0000    0.56150   0.33560   0.11920   Biso      1.000     H          0.127079  
         H31       1.0000    0.75140   0.32250   0.92760   Biso      1.000     H          0.13405899999999998           
         H32       1.0000    0.82650   0.72570   0.52570   Biso      1.000     H          0.130471  
         H33       1.0000    0.94580   0.82360   0.54140   Biso      1.000     H          0.096149  
         H34       1.0000    0.82000   0.99100   0.41750   Biso      1.000     H          0.094836  
         H35       1.0000    0.70020   0.89710   0.39800   Biso      1.000     H          0.132735  
         H36       1.0000    0.30600   0.46710   0.42340   Biso      1.000     H          0.089223  
         H37       1.0000    0.57030   0.28510   0.02640   Biso      1.000     H          0.11312   
         H38       1.0000    0.28520   0.68850   0.28510   Biso      1.000     H          0.11444800000000001           
         H39       1.0000    0.42890   0.74990   0.32250   Biso      1.000     H          0.13331400000000002           
         H40       1.0000    0.10080   0.74860   0.72570   Biso      1.000     H          0.13001   
         H41       1.0000    0.12220   0.63500   0.82360   Biso      1.000     H          0.092672  
         H42       1.0000    0.82900   0.59150   0.99100   Biso      1.000     H          0.095625  
         H43       1.0000    0.80310   0.70490   0.89710   Biso      1.000     H          0.133051  
         H44       1.0000    0.83890   0.10950   0.46710   Biso      1.000     H          0.088923  
         H45       1.0000    0.67900   0.92760   0.74990   Biso      1.000     H          0.134373  
         H46       1.0000    0.68070   0.11920   0.54520   Biso      1.000     H          0.12548499999999999           
         H47       1.0000    0.59670   0.02640   0.68850   Biso      1.000     H          0.11404700000000001           
         H48       1.0000    0.22590   0.54520   0.33560   Biso      1.000     H          0.12673199999999998           
         N1        1.0000    0.97782   0.60023   0.91807   Biso      1.000     N          -0.143774           
         N2        1.0000    0.84555   0.84144   0.74999   Biso      1.000     N          -0.44505  
         N3        1.0000    0.57875   0.61511   0.47226   Biso      1.000     N          -0.141671           
         N4        1.0000    0.00607   0.85301   0.65560   Biso      1.000     N          -0.29277800000000004          
         N5        1.0000    0.85778   0.01493   0.55817   Biso      1.000     N          -0.187417           
         N6        1.0000    0.66167   0.65560   0.49139   Biso      1.000     N          -0.292568           
         N7        1.0000    0.05101   0.47226   0.91263   Biso      1.000     N          -0.146379           
         N8        1.0000    0.41595   0.55817   0.42690   Biso      1.000     N          -0.18193299999999998          
         N9        1.0000    0.89589   0.91807   0.48170   Biso      1.000     N          -0.14386400000000002          
         N10       1.0000    0.15306   0.49139   0.85301   Biso      1.000     N          -0.29196300000000003          
         N11       1.0000    0.00411   0.40857   0.84144   Biso      1.000     N          -0.44745  
         N12       1.0000    0.96364   0.91263   0.61511   Biso      1.000     N          -0.14316099999999998          
         N13       1.0000    0.59554   0.74999   0.40857   Biso      1.000     N          -0.444151           
         N14       1.0000    0.62241   0.51830   0.39977   Biso      1.000     N          -0.14471199999999998          
         N15       1.0000    0.15445   0.15856   0.25001   Biso      1.000     N          -0.44505  
         N16       1.0000    0.99589   0.59143   0.15856   Biso      1.000     N          -0.44745  
         N17       1.0000    0.84694   0.50861   0.14699   Biso      1.000     N          -0.291979           
         N18       1.0000    0.94899   0.52774   0.08737   Biso      1.000     N          -0.146362           
         N19       1.0000    0.10411   0.08193   0.51830   Biso      1.000     N          -0.14386400000000002          
         N20       1.0000    0.58405   0.44183   0.57310   Biso      1.000     N          -0.18193299999999998          
         N21       1.0000    0.40446   0.25001   0.59143   Biso      1.000     N          -0.444151           
         N22       1.0000    0.33833   0.34440   0.50861   Biso      1.000     N          -0.29258  
         N23       1.0000    0.42125   0.38489   0.52774   Biso      1.000     N          -0.141658           
         N24       1.0000    0.02218   0.39977   0.08193   Biso      1.000     N          -0.143773           
         N25       1.0000    0.14222   0.98507   0.44183   Biso      1.000     N          -0.187416           
         N26       1.0000    0.99393   0.14699   0.34440   Biso      1.000     N          -0.29277800000000004          
         N27       1.0000    0.03636   0.08737   0.38489   Biso      1.000     N          -0.14316199999999998          
         N28       1.0000    0.84285   0.42690   0.01493   Biso      1.000     N          -0.184488           
         N29       1.0000    0.15715   0.57310   0.98507   Biso      1.000     N          -0.18448900000000001          
         N30       1.0000    0.37759   0.48170   0.60023   Biso      1.000     N          -0.14471199999999998 