
##########################################################################
#               Crystallographic Information Format file
#               Produced by PyCifRW module
#
#  This is a CIF file.  CIF has been adopted by the International
#  Union of Crystallography as the standard for data archiving and
#  transmission.
#
#  For information on this file format, follow the CIF links at
#  http://www.iucr.org
##########################################################################

data_image0

_cell_length_a                          6.928
_cell_length_b                          17.5648
_cell_length_c                          17.5648
_cell_angle_alpha                       61.7011
_cell_angle_beta                        82.4451
_cell_angle_gamma                       97.5549
_symmetry_space_group_name_H-M          'P 1'
_symmetry_int_tables_number             1
loop_
  _symmetry_equiv_pos_as_xyz
         'x, y, z' 
loop_
  _atom_site_label
  _atom_site_occupancy
  _atom_site_fract_x
  _atom_site_fract_y
  _atom_site_fract_z
  _atom_site_thermal_displace_type
  _atom_site_B_iso_or_equiv
  _atom_site_type_symbol
  _atom_site_charge
         C1        1.0000    0.87479   0.57887   0.01170   Biso      1.000     C          -0.034651           
         C2        1.0000    0.95235   0.65912   0.08757   Biso      1.000     C          -0.010325           
         C3        1.0000    0.02460   0.73564   0.92844   Biso      1.000     C          -0.009557           
         C4        1.0000    0.77694   0.18051   0.65979   Biso      1.000     C          0.580042  
         C5        1.0000    0.78889   0.50434   0.50947   Biso      1.000     C          0.575589  
         C6        1.0000    0.79257   0.34270   0.58759   Biso      1.000     C          -0.088723           
         C7        1.0000    0.79739   0.34209   0.83142   Biso      1.000     C          0.57735   
         C8        1.0000    0.79518   0.42015   0.67041   Biso      1.000     C          -0.082776           
         C9        1.0000    0.78995   0.26287   0.74362   Biso      1.000     C          -0.100849           
         C10       1.0000    0.79592   0.42113   0.59057   Biso      1.000     C          -0.034613           
         C11       1.0000    0.02708   0.73713   0.00649   Biso      1.000     C          -0.099496           
         C12       1.0000    0.79323   0.34088   0.74669   Biso      1.000     C          -0.00872  
         C13       1.0000    0.59643   0.15970   0.18051   Biso      1.000     C          0.581499  
         C14       1.0000    0.28455   0.98619   0.50434   Biso      1.000     C          0.575791  
         C15       1.0000    0.44987   0.06971   0.34270   Biso      1.000     C          -0.087054           
         C16       1.0000    0.37503   0.90944   0.42015   Biso      1.000     C          -0.0817   
         C17       1.0000    0.52708   0.99351   0.26287   Biso      1.000     C          -0.099304           
         C18       1.0000    0.37479   0.98830   0.42113   Biso      1.000     C          -0.034554           
         C19       1.0000    0.45235   0.91243   0.34088   Biso      1.000     C          -0.010217           
         C20       1.0000    0.52460   0.07156   0.26436   Biso      1.000     C          -0.009435           
         C21       1.0000    0.43673   0.65979   0.15970   Biso      1.000     C          0.582448  
         C22       1.0000    0.78896   0.26436   0.66408   Biso      1.000     C          -0.007124           
         C23       1.0000    0.29836   0.50947   0.98619   Biso      1.000     C          0.576302  
         C24       1.0000    0.87503   0.57985   0.09056   Biso      1.000     C          -0.08148  
         C25       1.0000    0.94987   0.65730   0.93029   Biso      1.000     C          -0.088289           
         C26       1.0000    0.93673   0.84030   0.34021   Biso      1.000     C          0.582005  
         C27       1.0000    0.79836   0.01381   0.49053   Biso      1.000     C          0.576383  
         C28       1.0000    0.88016   0.93029   0.41241   Biso      1.000     C          -0.087218           
         C29       1.0000    0.12881   0.17351   0.16858   Biso      1.000     C          0.580334  
         C30       1.0000    0.96559   0.09056   0.32959   Biso      1.000     C          -0.082878           
         C31       1.0000    0.03357   0.00649   0.25638   Biso      1.000     C          -0.100797           
         C32       1.0000    0.88649   0.01170   0.40943   Biso      1.000     C          -0.035087           
         C33       1.0000    0.03992   0.08757   0.25331   Biso      1.000     C          -0.009229           
         C34       1.0000    0.95304   0.92844   0.33592   Biso      1.000     C          -0.007137           
         C35       1.0000    0.95530   0.65791   0.17351   Biso      1.000     C          0.580245  
         C36       1.0000    0.27694   0.34021   0.81949   Biso      1.000     C          0.58028   
         C37       1.0000    0.29257   0.41241   0.65730   Biso      1.000     C          -0.087241           
         C38       1.0000    0.29739   0.16858   0.65791   Biso      1.000     C          0.576964  
         C39       1.0000    0.29518   0.32959   0.57985   Biso      1.000     C          -0.083439           
         C40       1.0000    0.28995   0.25638   0.73713   Biso      1.000     C          -0.100612           
         C41       1.0000    0.29592   0.40943   0.57887   Biso      1.000     C          -0.035472           
         C42       1.0000    0.29323   0.25331   0.65912   Biso      1.000     C          -0.008498           
         C43       1.0000    0.28896   0.33592   0.73564   Biso      1.000     C          -0.007127           
         C44       1.0000    0.09643   0.81949   0.84030   Biso      1.000     C          0.581673  
         C45       1.0000    0.78455   0.49566   0.01381   Biso      1.000     C          0.575995  
         C46       1.0000    0.28889   0.49053   0.49566   Biso      1.000     C          0.575328  
         C47       1.0000    0.38016   0.58759   0.06971   Biso      1.000     C          -0.087001           
         C48       1.0000    0.45530   0.82649   0.34209   Biso      1.000     C          0.580408  
         C49       1.0000    0.46559   0.67041   0.90944   Biso      1.000     C          -0.083257           
         C50       1.0000    0.45304   0.66408   0.07156   Biso      1.000     C          -0.007351           
         C51       1.0000    0.53992   0.74669   0.91243   Biso      1.000     C          -0.00915  
         C52       1.0000    0.62881   0.83142   0.82649   Biso      1.000     C          0.57988   
         C53       1.0000    0.53357   0.74362   0.99351   Biso      1.000     C          -0.100706           
         C54       1.0000    0.38649   0.59057   0.98830   Biso      1.000     C          -0.036039           
         H1        1.0000    0.50450   0.95750   0.64330   Biso      1.000     H          0.400684  
         H2        1.0000    0.58840   0.29060   0.40910   Biso      1.000     H          0.409846  
         H3        1.0000    0.58300   0.79450   0.99510   Biso      1.000     H          0.144647  
         H4        1.0000    0.46880   0.67290   0.85520   Biso      1.000     H          0.1414    
         H5        1.0000    0.79590   0.47190   0.67290   Biso      1.000     H          0.141482  
         H6        1.0000    0.14780   0.64330   0.39920   Biso      1.000     H          0.400389  
         H7        1.0000    0.99750   0.40910   0.30030   Biso      1.000     H          0.409643  
         H8        1.0000    0.57810   0.99510   0.21040   Biso      1.000     H          0.14435   
         H9        1.0000    0.32400   0.85520   0.47190   Biso      1.000     H          0.141351  
         H10       1.0000    0.44960   0.12240   0.34310   Biso      1.000     H          0.135884  
         H11       1.0000    0.54700   0.39920   0.95750   Biso      1.000     H          0.40021   
         H12       1.0000    0.29780   0.30030   0.29060   Biso      1.000     H          0.40837   
         H13       1.0000    0.78850   0.21040   0.79450   Biso      1.000     H          0.144496  
         H14       1.0000    0.79270   0.34310   0.53450   Biso      1.000     H          0.134984  
         H15       1.0000    0.32720   0.53450   0.12240   Biso      1.000     H          0.135113  
         H16       1.0000    0.49750   0.69970   0.59090   Biso      1.000     H          0.408996  
         H17       1.0000    0.64780   0.60080   0.35670   Biso      1.000     H          0.400673  
         H18       1.0000    0.82720   0.87760   0.46550   Biso      1.000     H          0.13561   
         H19       1.0000    0.96880   0.14480   0.32710   Biso      1.000     H          0.141603  
         H20       1.0000    0.08840   0.59090   0.70940   Biso      1.000     H          0.410719  
         H21       1.0000    0.00450   0.35670   0.04250   Biso      1.000     H          0.400385  
         H22       1.0000    0.29270   0.46550   0.65690   Biso      1.000     H          0.13508   
         H23       1.0000    0.29590   0.32710   0.52810   Biso      1.000     H          0.141476  
         H24       1.0000    0.08300   0.00490   0.20550   Biso      1.000     H          0.144679  
         H25       1.0000    0.79780   0.70940   0.69970   Biso      1.000     H          0.408168  
         H26       1.0000    0.04700   0.04250   0.60080   Biso      1.000     H          0.400205  
         H27       1.0000    0.94960   0.65690   0.87760   Biso      1.000     H          0.135344  
         H28       1.0000    0.82400   0.52810   0.14480   Biso      1.000     H          0.141183  
         H29       1.0000    0.07810   0.78960   0.00490   Biso      1.000     H          0.144352  
         H30       1.0000    0.28850   0.20550   0.78960   Biso      1.000     H          0.14448   
         O1        1.0000    0.52427   0.65724   0.58693   Biso      1.000     O          -0.590948           
         O2        1.0000    0.08555   0.81667   0.77112   Biso      1.000     O          -0.554531           
         O3        1.0000    0.16638   0.88983   0.84029   Biso      1.000     O          -0.511412           
         O4        1.0000    0.91706   0.58391   0.24363   Biso      1.000     O          -0.562292           
         O5        1.0000    0.99953   0.73187   0.17028   Biso      1.000     O          -0.5105   
         O6        1.0000    0.76124   0.56920   0.52198   Biso      1.000     O          -0.525554           
         O7        1.0000    0.80613   0.50715   0.43626   Biso      1.000     O          -0.538189           
         O8        1.0000    0.36703   0.34276   0.24417   Biso      1.000     O          -0.592574           
         O9        1.0000    0.77655   0.11017   0.73012   Biso      1.000     O          -0.510514           
         O10       1.0000    0.79898   0.49285   0.94341   Biso      1.000     O          -0.538086           
         O11       1.0000    0.76888   0.18333   0.58779   Biso      1.000     O          -0.554261           
         O12       1.0000    0.66490   0.66277   0.34217   Biso      1.000     O          -0.880799           
         O13       1.0000    0.69204   0.43080   0.09118   Biso      1.000     O          -0.525956           
         O14       1.0000    0.00707   0.34217   0.99506   Biso      1.000     O          -0.882697           
         O15       1.0000    0.26766   0.09785   0.73187   Biso      1.000     O          -0.510864           
         O16       1.0000    0.11120   0.58693   0.75583   Biso      1.000     O          -0.577593           
         O17       1.0000    0.85667   0.77112   0.41221   Biso      1.000     O          -0.55832  
         O18       1.0000    0.00667   0.84029   0.26988   Biso      1.000     O          -0.512044           
         O19       1.0000    0.16069   0.24363   0.17246   Biso      1.000     O          -0.559895           
         O20       1.0000    0.16981   0.17028   0.09785   Biso      1.000     O          -0.51202  
         O21       1.0000    0.26124   0.47802   0.43080   Biso      1.000     O          -0.524436           
         O22       1.0000    0.30613   0.56374   0.49285   Biso      1.000     O          -0.539403           
         O23       1.0000    0.86703   0.75583   0.65724   Biso      1.000     O          -0.593106           
         O24       1.0000    0.26888   0.41221   0.81667   Biso      1.000     O          -0.556711           
         O25       1.0000    0.27655   0.26988   0.88983   Biso      1.000     O          -0.511999           
         O26       1.0000    0.83315   0.41609   0.82754   Biso      1.000     O          -0.561132           
         O27       1.0000    0.33315   0.17246   0.58391   Biso      1.000     O          -0.559757           
         O28       1.0000    0.00213   0.99506   0.66277   Biso      1.000     O          -0.880453           
         O29       1.0000    0.76766   0.26813   0.90215   Biso      1.000     O          -0.509518           
         O30       1.0000    0.78322   0.09118   0.47802   Biso      1.000     O          -0.523886           
         O31       1.0000    0.19204   0.90882   0.56920   Biso      1.000     O          -0.523947           
         O32       1.0000    0.74239   0.94341   0.56374   Biso      1.000     O          -0.540905           
         O33       1.0000    0.50707   0.00494   0.65783   Biso      1.000     O          -0.881497           
         O34       1.0000    0.50213   0.33723   0.00494   Biso      1.000     O          -0.880265           
         O35       1.0000    0.66069   0.82754   0.75637   Biso      1.000     O          -0.560663           
         O36       1.0000    0.50667   0.73012   0.15971   Biso      1.000     O          -0.513059           
         O37       1.0000    0.35667   0.58779   0.22888   Biso      1.000     O          -0.557842           
         O38       1.0000    0.61120   0.24417   0.41307   Biso      1.000     O          -0.593354           
         O39       1.0000    0.24239   0.43626   0.05659   Biso      1.000     O          -0.539815           
         O40       1.0000    0.66981   0.90215   0.82972   Biso      1.000     O          -0.512169           
         O41       1.0000    0.16490   0.65783   0.33723   Biso      1.000     O          -0.882155           
         O42       1.0000    0.49953   0.82972   0.26813   Biso      1.000     O          -0.511619           
         O43       1.0000    0.41706   0.75637   0.41609   Biso      1.000     O          -0.560022           
         O44       1.0000    0.66638   0.15971   0.11017   Biso      1.000     O          -0.511682           
         O45       1.0000    0.58555   0.22888   0.18333   Biso      1.000     O          -0.55695  
         O46       1.0000    0.02427   0.41307   0.34276   Biso      1.000     O          -0.575853           
         O47       1.0000    0.29898   0.05659   0.50715   Biso      1.000     O          -0.540437           
         O48       1.0000    0.28322   0.52198   0.90882   Biso      1.000     O          -0.525067           
         Zn1       1.0000    0.55830   0.12604   0.53554   Biso      1.000     Zn          1.037124  
         Zn2       1.0000    0.45397   0.70910   0.28125   Biso      1.000     Zn          0.992387  
         Zn3       1.0000    0.09384   0.53554   0.33842   Biso      1.000     Zn          1.030969  
         Zn4       1.0000    0.73522   0.28125   0.00965   Biso      1.000     Zn          0.992809  
         Zn5       1.0000    0.43226   0.33842   0.12604   Biso      1.000     Zn          1.038818  
         Zn6       1.0000    0.93226   0.87396   0.66158   Biso      1.000     Zn          1.037346  
         Zn7       1.0000    0.59384   0.66158   0.46446   Biso      1.000     Zn          1.038253  
         Zn8       1.0000    0.23522   0.99035   0.71875   Biso      1.000     Zn          0.992404  
         Zn9       1.0000    0.24487   0.29090   0.99035   Biso      1.000     Zn          0.992912  
         Zn10      1.0000    0.05830   0.46446   0.87396   Biso      1.000     Zn          1.031394  
         Zn11      1.0000    0.95397   0.71875   0.29090   Biso      1.000     Zn          0.992506  
         Zn12      1.0000    0.74487   0.00965   0.70910   Biso      1.000     Zn          0.992616 