
##########################################################################
#               Crystallographic Information Format file
#               Produced by PyCifRW module
#
#  This is a CIF file.  CIF has been adopted by the International
#  Union of Crystallography as the standard for data archiving and
#  transmission.
#
#  For information on this file format, follow the CIF links at
#  http://www.iucr.org
##########################################################################

data_image0

_cell_length_a                          10.445
_cell_length_b                          11.119
_cell_length_c                          12.43
_cell_angle_alpha                       103.726
_cell_angle_beta                        106.487
_cell_angle_gamma                       98.395
_symmetry_space_group_name_H-M          'P 1'
_symmetry_int_tables_number             1
loop_
  _symmetry_equiv_pos_as_xyz
         'x, y, z' 
loop_
  _atom_site_label
  _atom_site_occupancy
  _atom_site_fract_x
  _atom_site_fract_y
  _atom_site_fract_z
  _atom_site_thermal_displace_type
  _atom_site_B_iso_or_equiv
  _atom_site_type_symbol
  _atom_site_charge
         C1        1.0000    0.57580   0.05230   0.61920   Biso      1.000     C          0.339047  
         C2        1.0000    0.43550   0.03390   0.58080   Biso      1.000     C          -0.140976           
         C3        1.0000    0.29520   0.27150   0.85340   Biso      1.000     C          0.612458  
         C4        1.0000    0.97160   0.61670   0.49340   Biso      1.000     C          -0.158461           
         C5        1.0000    0.40010   0.39040   0.92820   Biso      1.000     C          -0.187693           
         C6        1.0000    0.96780   0.52700   0.39150   Biso      1.000     C          0.313911  
         C7        1.0000    0.35700   0.98110   0.46250   Biso      1.000     C          -0.088278           
         C8        1.0000    0.36210   0.49380   0.98910   Biso      1.000     C          0.262439  
         C9        1.0000    0.53950   0.39710   0.93910   Biso      1.000     C          0.0135    
         C10       1.0000    0.42420   0.94770   0.38080   Biso      1.000     C          0.339048  
         C11       1.0000    0.00420   0.58970   0.60020   Biso      1.000     C          -0.212689           
         C12       1.0000    0.94490   0.74630   0.49180   Biso      1.000     C          0.667155  
         C13       1.0000    0.20550   0.96000   0.42520   Biso      1.000     C          0.651925  
         C14       1.0000    0.99580   0.41030   0.39980   Biso      1.000     C          -0.212689           
         C15       1.0000    0.46050   0.60290   0.06090   Biso      1.000     C          0.013499  
         C16       1.0000    0.63790   0.50620   0.01090   Biso      1.000     C          0.262439  
         C17       1.0000    0.64300   0.01890   0.53750   Biso      1.000     C          -0.088277           
         C18       1.0000    0.03220   0.47300   0.60850   Biso      1.000     C          0.313911  
         C19       1.0000    0.59990   0.60960   0.07180   Biso      1.000     C          -0.187694           
         C20       1.0000    0.02840   0.38330   0.50660   Biso      1.000     C          -0.158461           
         C21       1.0000    0.70480   0.72850   0.14660   Biso      1.000     C          0.612458  
         C22       1.0000    0.56450   0.96610   0.41920   Biso      1.000     C          -0.140975           
         C23       1.0000    0.79450   0.04000   0.57480   Biso      1.000     C          0.651925  
         C24       1.0000    0.05510   0.25370   0.50820   Biso      1.000     C          0.667155  
         Ce1       1.0000    0.09465   0.04501   0.68386   Biso      1.000     Ce          2.058219  
         Ce2       1.0000    0.90535   0.95499   0.31614   Biso      1.000     Ce          2.058218  
         H1        1.0000    0.07310   0.38040   0.71140   Biso      1.000     H          0.391935  
         H2        1.0000    0.60940   0.94200   0.36350   Biso      1.000     H          0.13733599999999999           
         H3        1.0000    0.99270   0.34800   0.33130   Biso      1.000     H          0.14518399999999998           
         H4        1.0000    0.17910   0.43400   0.95640   Biso      1.000     H          0.399054  
         H5        1.0000    0.92690   0.61960   0.28860   Biso      1.000     H          0.391935  
         H6        1.0000    0.39060   0.05800   0.63650   Biso      1.000     H          0.13733599999999999           
         H7        1.0000    0.00730   0.65200   0.66870   Biso      1.000     H          0.14518399999999998           
         H8        1.0000    0.82090   0.56600   0.04360   Biso      1.000     H          0.399054  
         O1        1.0000    0.82850   0.73910   0.14910   Biso      1.000     O          -0.633397           
         O2        1.0000    0.66730   0.81630   0.20750   Biso      1.000     O          -0.651993           
         O3        1.0000    0.06210   0.45470   0.71650   Biso      1.000     O          -0.47805699999999995          
         O4        1.0000    0.86230   0.07930   0.68410   Biso      1.000     O          -0.585886           
         O5        1.0000    0.64380   0.10290   0.73680   Biso      1.000     O          -0.345053           
         O6        1.0000    0.09230   0.23340   0.60770   Biso      1.000     O          -0.640614           
         O7        1.0000    0.85450   0.01950   0.49960   Biso      1.000     O          -0.737312           
         O8        1.0000    0.03880   0.17400   0.41240   Biso      1.000     O          -0.68262  
         O9        1.0000    0.14550   0.98050   0.50040   Biso      1.000     O          -0.737312           
         O10       1.0000    0.93790   0.54530   0.28350   Biso      1.000     O          -0.47805699999999995          
         O11       1.0000    0.35620   0.89710   0.26320   Biso      1.000     O          -0.345052           
         O12       1.0000    0.13770   0.92070   0.31590   Biso      1.000     O          -0.585886           
         O13       1.0000    0.33270   0.18370   0.79250   Biso      1.000     O          -0.651993           
         O14       1.0000    0.17150   0.26090   0.85090   Biso      1.000     O          -0.633397           
         O15       1.0000    0.90770   0.76660   0.39230   Biso      1.000     O          -0.640614           
         O16       1.0000    0.96120   0.82600   0.58760   Biso      1.000     O          -0.68262  
         O17       1.0000    0.23340   0.50590   0.98630   Biso      1.000     O          -0.44913500000000006          
         O18       1.0000    0.76660   0.49410   0.01370   Biso      1.000     O          -0.44913500000000006 