
##########################################################################
#               Crystallographic Information Format file
#               Produced by PyCifRW module
#
#  This is a CIF file.  CIF has been adopted by the International
#  Union of Crystallography as the standard for data archiving and
#  transmission.
#
#  For information on this file format, follow the CIF links at
#  http://www.iucr.org
##########################################################################

data_image0

_cell_length_a                          10.406
_cell_length_b                          11.062
_cell_length_c                          12.407
_cell_angle_alpha                       103.58
_cell_angle_beta                        106.34
_cell_angle_gamma                       98.73
_symmetry_space_group_name_H-M          'P 1'
_symmetry_int_tables_number             1
loop_
  _symmetry_equiv_pos_as_xyz
         'x, y, z' 
loop_
  _atom_site_label
  _atom_site_occupancy
  _atom_site_fract_x
  _atom_site_fract_y
  _atom_site_fract_z
  _atom_site_thermal_displace_type
  _atom_site_B_iso_or_equiv
  _atom_site_type_symbol
  _atom_site_charge
         C1        1.0000    0.70580   0.22880   0.14730   Biso      1.000     C          0.604876  
         C2        1.0000    0.43400   0.53410   0.58070   Biso      1.000     C          -0.213296           
         C3        1.0000    0.36180   0.99400   0.98910   Biso      1.000     C          0.301172  
         C4        1.0000    0.42470   0.44820   0.38090   Biso      1.000     C          0.323367  
         C5        1.0000    0.02880   0.88190   0.50660   Biso      1.000     C          -0.155299           
         C6        1.0000    0.99920   0.91190   0.40060   Biso      1.000     C          -0.217448           
         C7        1.0000    0.64230   0.51850   0.53800   Biso      1.000     C          -0.146498           
         C8        1.0000    0.94430   0.24660   0.49130   Biso      1.000     C          0.671954  
         C9        1.0000    0.46020   0.10440   0.06060   Biso      1.000     C          -0.200967           
         C10       1.0000    0.79510   0.53970   0.57430   Biso      1.000     C          0.661654  
         C11       1.0000    0.59970   0.10970   0.07130   Biso      1.000     C          -0.148764           
         C12       1.0000    0.56600   0.46590   0.41930   Biso      1.000     C          -0.213297           
         C13       1.0000    0.97020   0.02770   0.39250   Biso      1.000     C          0.313656  
         C14       1.0000    0.63820   0.00600   0.01090   Biso      1.000     C          0.301172  
         C15       1.0000    0.57530   0.55180   0.61910   Biso      1.000     C          0.323367  
         C16       1.0000    0.97120   0.11810   0.49340   Biso      1.000     C          -0.155301           
         C17       1.0000    0.40030   0.89030   0.92870   Biso      1.000     C          -0.148764           
         C18       1.0000    0.20490   0.46030   0.42570   Biso      1.000     C          0.661654  
         C19       1.0000    0.02980   0.97230   0.60750   Biso      1.000     C          0.313653  
         C20       1.0000    0.05570   0.75340   0.50870   Biso      1.000     C          0.671954  
         C21       1.0000    0.35770   0.48150   0.46200   Biso      1.000     C          -0.146498           
         C22       1.0000    0.29420   0.77120   0.85270   Biso      1.000     C          0.604876  
         C23       1.0000    0.00080   0.08810   0.59940   Biso      1.000     C          -0.21744499999999997          
         C24       1.0000    0.53980   0.89560   0.93940   Biso      1.000     C          -0.200968           
         H1        1.0000    0.27410   0.39430   0.24960   Biso      1.000     H          0.400457  
         H2        1.0000    0.07560   0.88180   0.71070   Biso      1.000     H          0.39668400000000004           
         H3        1.0000    0.00090   0.14760   0.66630   Biso      1.000     H          0.14463800000000002           
         H4        1.0000    0.56550   0.82630   0.89930   Biso      1.000     H          0.155642  
         H5        1.0000    0.38930   0.55760   0.63470   Biso      1.000     H          0.138024  
         H6        1.0000    0.72590   0.60570   0.75040   Biso      1.000     H          0.400457  
         H7        1.0000    0.17660   0.93960   0.94680   Biso      1.000     H          0.401239  
         H8        1.0000    0.99910   0.85240   0.33370   Biso      1.000     H          0.14463800000000002           
         H9        1.0000    0.43450   0.17370   0.10070   Biso      1.000     H          0.155642  
         H10       1.0000    0.61070   0.44240   0.36530   Biso      1.000     H          0.138024  
         H11       1.0000    0.82340   0.06040   0.05320   Biso      1.000     H          0.401239  
         H12       1.0000    0.92440   0.11820   0.28930   Biso      1.000     H          0.39668400000000004           
         O1        1.0000    0.90700   0.26690   0.39210   Biso      1.000     O          -0.639404           
         O2        1.0000    0.23250   0.00740   0.98540   Biso      1.000     O          -0.493626           
         O3        1.0000    0.66930   0.31780   0.20860   Biso      1.000     O          -0.665539           
         O4        1.0000    0.85520   0.51940   0.49930   Biso      1.000     O          -0.733721           
         O5        1.0000    0.86360   0.57740   0.68390   Biso      1.000     O          -0.635887           
         O6        1.0000    0.94220   0.04790   0.28490   Biso      1.000     O          -0.49644799999999994          
         O7        1.0000    0.64340   0.60250   0.73700   Biso      1.000     O          -0.48999499999999996          
         O8        1.0000    0.82930   0.24090   0.14950   Biso      1.000     O          -0.656682           
         O9        1.0000    0.03990   0.67320   0.41170   Biso      1.000     O          -0.703353           
         O10       1.0000    0.76750   0.99260   0.01460   Biso      1.000     O          -0.493626           
         O11       1.0000    0.09300   0.73310   0.60790   Biso      1.000     O          -0.639404           
         O12       1.0000    0.14480   0.48060   0.50070   Biso      1.000     O          -0.733721           
         O13       1.0000    0.13640   0.42260   0.31610   Biso      1.000     O          -0.635887           
         O14       1.0000    0.05780   0.95210   0.71510   Biso      1.000     O          -0.49644799999999994          
         O15       1.0000    0.35660   0.39750   0.26300   Biso      1.000     O          -0.48999499999999996          
         O16       1.0000    0.17070   0.75910   0.85050   Biso      1.000     O          -0.656682           
         O17       1.0000    0.96010   0.32680   0.58830   Biso      1.000     O          -0.703353           
         O18       1.0000    0.33070   0.68220   0.79140   Biso      1.000     O          -0.665539           
         Pr1       1.0000    0.90585   0.45574   0.31734   Biso      1.000     Pr          2.083567  
         Pr2       1.0000    0.09415   0.54426   0.68266   Biso      1.000     Pr          2.083568 