
##########################################################################
#               Crystallographic Information Format file
#               Produced by PyCifRW module
#
#  This is a CIF file.  CIF has been adopted by the International
#  Union of Crystallography as the standard for data archiving and
#  transmission.
#
#  For information on this file format, follow the CIF links at
#  http://www.iucr.org
##########################################################################

data_image0

_cell_length_a                          19.961
_cell_length_b                          6.081
_cell_length_c                          21.693
_cell_angle_alpha                       90
_cell_angle_beta                        92.694
_cell_angle_gamma                       90
_symmetry_space_group_name_H-M          'P 1'
_symmetry_int_tables_number             1
loop_
  _symmetry_equiv_pos_as_xyz
         'x, y, z' 
loop_
  _atom_site_label
  _atom_site_occupancy
  _atom_site_fract_x
  _atom_site_fract_y
  _atom_site_fract_z
  _atom_site_thermal_displace_type
  _atom_site_B_iso_or_equiv
  _atom_site_type_symbol
  _atom_site_charge
         C1        1.0000    0.18490   0.94270   0.38450   Biso      1.000     C          0.106344  
         C2        1.0000    0.78580   0.12030   0.17051   Biso      1.000     C          0.069562  
         C3        1.0000    0.44239   0.93070   0.02660   Biso      1.000     C          -0.229502           
         C4        1.0000    0.82570   0.30340   0.16530   Biso      1.000     C          -0.170523           
         C5        1.0000    0.81510   0.44270   0.11550   Biso      1.000     C          0.106346  
         C6        1.0000    0.50070   0.80820   0.03490   Biso      1.000     C          0.308887  
         C7        1.0000    0.68490   0.05730   0.38450   Biso      1.000     C          0.106344  
         C8        1.0000    0.67430   0.19660   0.33470   Biso      1.000     C          -0.170525           
         C9        1.0000    0.50070   0.69180   0.53490   Biso      1.000     C          0.308886  
         C10       1.0000    0.71420   0.37970   0.32949   Biso      1.000     C          0.069566  
         C11       1.0000    0.44239   0.56930   0.52660   Biso      1.000     C          -0.229501           
         C12       1.0000    0.44102   0.37750   0.49215   Biso      1.000     C          -0.15449  
         C13       1.0000    0.37805   0.24840   0.48480   Biso      1.000     C          0.596561  
         C14       1.0000    0.76480   0.41310   0.37540   Biso      1.000     C          -0.164049           
         C15       1.0000    0.77230   0.26520   0.42285   Biso      1.000     C          0.110761  
         C16       1.0000    0.34960   0.48630   0.76970   Biso      1.000     C          -0.559001           
         C17       1.0000    0.29340   0.46480   0.72310   Biso      1.000     C          0.285035  
         C18       1.0000    0.94102   0.62250   0.49215   Biso      1.000     C          -0.154491           
         C19       1.0000    0.22770   0.73480   0.57715   Biso      1.000     C          0.110754  
         C20       1.0000    0.70660   0.53520   0.27690   Biso      1.000     C          0.285034  
         C21       1.0000    0.23520   0.58690   0.62460   Biso      1.000     C          -0.164042           
         C22       1.0000    0.28580   0.62030   0.67051   Biso      1.000     C          0.069561  
         C23       1.0000    0.73520   0.08690   0.12460   Biso      1.000     C          -0.164049           
         C24       1.0000    0.44102   0.12250   0.99215   Biso      1.000     C          -0.15449  
         C25       1.0000    0.72770   0.23480   0.07715   Biso      1.000     C          0.11076   
         C26       1.0000    0.37805   0.25160   0.98480   Biso      1.000     C          0.596561  
         C27       1.0000    0.87805   0.75160   0.48480   Biso      1.000     C          0.596561  
         C28       1.0000    0.00070   0.30820   0.53490   Biso      1.000     C          0.308886  
         C29       1.0000    0.84960   0.51370   0.76970   Biso      1.000     C          -0.559    
         C30       1.0000    0.79340   0.53520   0.72310   Biso      1.000     C          0.285035  
         C31       1.0000    0.31510   0.55730   0.11550   Biso      1.000     C          0.106344  
         C32       1.0000    0.72770   0.26520   0.57715   Biso      1.000     C          0.110754  
         C33       1.0000    0.73520   0.41310   0.62460   Biso      1.000     C          -0.164042           
         C34       1.0000    0.78580   0.37970   0.67051   Biso      1.000     C          0.069561  
         C35       1.0000    0.32570   0.69660   0.16530   Biso      1.000     C          -0.170526           
         C36       1.0000    0.82570   0.19660   0.66530   Biso      1.000     C          -0.170523           
         C37       1.0000    0.65040   0.51370   0.23030   Biso      1.000     C          -0.559    
         C38       1.0000    0.81510   0.05730   0.61550   Biso      1.000     C          0.106346  
         C39       1.0000    0.23520   0.91310   0.12460   Biso      1.000     C          -0.164049           
         C40       1.0000    0.22770   0.76520   0.07715   Biso      1.000     C          0.11076   
         C41       1.0000    0.29340   0.03520   0.22310   Biso      1.000     C          0.285035  
         C42       1.0000    0.00070   0.19180   0.03490   Biso      1.000     C          0.308886  
         C43       1.0000    0.34960   0.01370   0.26970   Biso      1.000     C          -0.559    
         C44       1.0000    0.94239   0.06930   0.02660   Biso      1.000     C          -0.229501           
         C45       1.0000    0.94102   0.87750   0.99215   Biso      1.000     C          -0.15449  
         C46       1.0000    0.87805   0.74840   0.98480   Biso      1.000     C          0.596561  
         C47       1.0000    0.84960   0.98630   0.26970   Biso      1.000     C          -0.559001           
         C48       1.0000    0.79340   0.96480   0.22310   Biso      1.000     C          0.285035  
         C49       1.0000    0.28580   0.87970   0.17051   Biso      1.000     C          0.069566  
         C50       1.0000    0.32570   0.80340   0.66530   Biso      1.000     C          -0.170523           
         C51       1.0000    0.94239   0.43070   0.52660   Biso      1.000     C          -0.2295   
         C52       1.0000    0.27230   0.76520   0.92285   Biso      1.000     C          0.110754  
         C53       1.0000    0.27230   0.73480   0.42285   Biso      1.000     C          0.110754  
         C54       1.0000    0.76480   0.08690   0.87540   Biso      1.000     C          -0.164048           
         C55       1.0000    0.05761   0.93070   0.97340   Biso      1.000     C          -0.229503           
         C56       1.0000    0.71420   0.12030   0.82949   Biso      1.000     C          0.069562  
         C57       1.0000    0.21420   0.87970   0.82949   Biso      1.000     C          0.069561  
         C58       1.0000    0.67430   0.30340   0.83470   Biso      1.000     C          -0.170523           
         C59       1.0000    0.26480   0.91310   0.87540   Biso      1.000     C          -0.164043           
         C60       1.0000    0.68490   0.44270   0.88450   Biso      1.000     C          0.106346  
         C61       1.0000    0.20660   0.46480   0.27690   Biso      1.000     C          0.285034  
         C62       1.0000    0.31510   0.94270   0.61550   Biso      1.000     C          0.106346  
         C63       1.0000    0.15040   0.48630   0.23030   Biso      1.000     C          -0.559001           
         C64       1.0000    0.20660   0.03520   0.77690   Biso      1.000     C          0.285034  
         C65       1.0000    0.05898   0.12250   0.00785   Biso      1.000     C          -0.154487           
         C66       1.0000    0.12195   0.25160   0.01520   Biso      1.000     C          0.596561  
         C67       1.0000    0.15040   0.01370   0.73030   Biso      1.000     C          -0.559    
         C68       1.0000    0.99930   0.69180   0.46510   Biso      1.000     C          0.308888  
         C69       1.0000    0.05761   0.56930   0.47340   Biso      1.000     C          -0.229502           
         C70       1.0000    0.05898   0.37750   0.50785   Biso      1.000     C          -0.154487           
         C71       1.0000    0.77230   0.23480   0.92285   Biso      1.000     C          0.11076   
         C72       1.0000    0.12195   0.24840   0.51520   Biso      1.000     C          0.596561  
         C73       1.0000    0.17430   0.69660   0.83470   Biso      1.000     C          -0.170523           
         C74       1.0000    0.62195   0.75160   0.51520   Biso      1.000     C          0.596561  
         C75       1.0000    0.55898   0.62250   0.50785   Biso      1.000     C          -0.154487           
         C76       1.0000    0.55761   0.43070   0.47340   Biso      1.000     C          -0.229502           
         C77       1.0000    0.17430   0.80340   0.33470   Biso      1.000     C          -0.170525           
         C78       1.0000    0.49930   0.19180   0.96510   Biso      1.000     C          0.308888  
         C79       1.0000    0.55761   0.06930   0.97340   Biso      1.000     C          -0.229502           
         C80       1.0000    0.55898   0.87750   0.00785   Biso      1.000     C          -0.154487           
         C81       1.0000    0.49930   0.30820   0.46510   Biso      1.000     C          0.308889  
         C82       1.0000    0.62195   0.74840   0.01520   Biso      1.000     C          0.596561  
         C83       1.0000    0.99930   0.80820   0.96510   Biso      1.000     C          0.308889  
         C84       1.0000    0.18490   0.55730   0.88450   Biso      1.000     C          0.106346  
         C85       1.0000    0.21420   0.62030   0.32949   Biso      1.000     C          0.069565  
         C86       1.0000    0.65040   0.98630   0.73030   Biso      1.000     C          -0.559001           
         C87       1.0000    0.70660   0.96480   0.77690   Biso      1.000     C          0.285034  
         C88       1.0000    0.26480   0.58690   0.37540   Biso      1.000     C          -0.164043           
         H1        1.0000    0.09650   0.88310   0.95560   Biso      1.000     H          0.134151  
         H2        1.0000    0.35960   0.66700   0.19500   Biso      1.000     H          0.130066  
         H3        1.0000    0.16780   0.98270   0.69070   Biso      1.000     H          0.190035  
         H4        1.0000    0.90350   0.38310   0.54440   Biso      1.000     H          0.134151  
         H5        1.0000    0.20700   0.03440   0.12630   Biso      1.000     H          0.128517  
         H6        1.0000    0.96350   0.56510   0.92860   Biso      1.000     H          0.398297  
         H7        1.0000    0.03650   0.06510   0.57140   Biso      1.000     H          0.398297  
         H8        1.0000    0.34320   0.43630   0.11210   Biso      1.000     H          0.098108  
         H9        1.0000    0.62150   0.39580   0.24180   Biso      1.000     H          0.170185  
         H10       1.0000    0.12540   0.14850   0.72820   Biso      1.000     H          0.192833  
         H11       1.0000    0.62540   0.64850   0.22820   Biso      1.000     H          0.192833  
         H12       1.0000    0.66780   0.48270   0.19070   Biso      1.000     H          0.190035  
         H13       1.0000    0.59650   0.38310   0.45560   Biso      1.000     H          0.134151  
         H14       1.0000    0.79300   0.53440   0.37370   Biso      1.000     H          0.128517  
         H15       1.0000    0.46350   0.06510   0.42860   Biso      1.000     H          0.398296  
         H16       1.0000    0.15680   0.43630   0.88790   Biso      1.000     H          0.098108  
         H17       1.0000    0.64040   0.16700   0.30500   Biso      1.000     H          0.130066  
         H18       1.0000    0.65680   0.93630   0.38790   Biso      1.000     H          0.098108  
         H19       1.0000    0.53650   0.56510   0.07140   Biso      1.000     H          0.398297  
         H20       1.0000    0.14040   0.66700   0.80500   Biso      1.000     H          0.130066  
         H21       1.0000    0.40350   0.88310   0.04440   Biso      1.000     H          0.134151  
         H22       1.0000    0.29300   0.03440   0.87370   Biso      1.000     H          0.128516  
         H23       1.0000    0.30600   0.78920   0.95320   Biso      1.000     H          0.098932  
         H24       1.0000    0.33220   0.98270   0.30930   Biso      1.000     H          0.190035  
         H25       1.0000    0.37460   0.14850   0.27180   Biso      1.000     H          0.192833  
         H26       1.0000    0.37850   0.89580   0.25820   Biso      1.000     H          0.170185  
         H27       1.0000    0.12150   0.89580   0.74180   Biso      1.000     H          0.170185  
         H28       1.0000    0.19400   0.78920   0.04680   Biso      1.000     H          0.098931  
         H29       1.0000    0.80600   0.28920   0.45320   Biso      1.000     H          0.098931  
         H30       1.0000    0.84320   0.93630   0.61210   Biso      1.000     H          0.098108  
         H31       1.0000    0.87460   0.64850   0.77180   Biso      1.000     H          0.192833  
         H32       1.0000    0.37460   0.35150   0.77180   Biso      1.000     H          0.192833  
         H33       1.0000    0.37850   0.60420   0.75820   Biso      1.000     H          0.170186  
         H34       1.0000    0.19400   0.71080   0.54680   Biso      1.000     H          0.098932  
         H35       1.0000    0.20700   0.46560   0.62630   Biso      1.000     H          0.128516  
         H36       1.0000    0.83220   0.48270   0.80930   Biso      1.000     H          0.190035  
         H37       1.0000    0.34320   0.06370   0.61210   Biso      1.000     H          0.098108  
         H38       1.0000    0.46350   0.43490   0.92860   Biso      1.000     H          0.398297  
         H39       1.0000    0.59650   0.11690   0.95560   Biso      1.000     H          0.134151  
         H40       1.0000    0.66780   0.01730   0.69070   Biso      1.000     H          0.190035  
         H41       1.0000    0.62540   0.85150   0.72820   Biso      1.000     H          0.192833  
         H42       1.0000    0.62150   0.10420   0.74180   Biso      1.000     H          0.170185  
         H43       1.0000    0.33220   0.51730   0.80930   Biso      1.000     H          0.190035  
         H44       1.0000    0.80600   0.21080   0.95320   Biso      1.000     H          0.098931  
         H45       1.0000    0.64040   0.33300   0.80500   Biso      1.000     H          0.130065  
         H46       1.0000    0.65680   0.56370   0.88790   Biso      1.000     H          0.098108  
         H47       1.0000    0.96350   0.93490   0.42860   Biso      1.000     H          0.398297  
         H48       1.0000    0.09650   0.61690   0.45560   Biso      1.000     H          0.134151  
         H49       1.0000    0.16780   0.51730   0.19070   Biso      1.000     H          0.190035  
         H50       1.0000    0.12540   0.35150   0.22820   Biso      1.000     H          0.192833  
         H51       1.0000    0.12150   0.60420   0.24180   Biso      1.000     H          0.170186  
         H52       1.0000    0.30600   0.71080   0.45320   Biso      1.000     H          0.098932  
         H53       1.0000    0.29300   0.46560   0.37370   Biso      1.000     H          0.128516  
         H54       1.0000    0.14040   0.83300   0.30500   Biso      1.000     H          0.130066  
         H55       1.0000    0.15680   0.06370   0.38790   Biso      1.000     H          0.098108  
         H56       1.0000    0.79300   0.96560   0.87370   Biso      1.000     H          0.128517  
         H57       1.0000    0.40350   0.61690   0.54440   Biso      1.000     H          0.134151  
         H58       1.0000    0.35960   0.83300   0.69500   Biso      1.000     H          0.130065  
         H59       1.0000    0.84320   0.56370   0.11210   Biso      1.000     H          0.098108  
         H60       1.0000    0.85960   0.16700   0.69500   Biso      1.000     H          0.130066  
         H61       1.0000    0.83220   0.01730   0.30930   Biso      1.000     H          0.190035  
         H62       1.0000    0.87460   0.85150   0.27180   Biso      1.000     H          0.192833  
         H63       1.0000    0.87850   0.10420   0.25820   Biso      1.000     H          0.170186  
         H64       1.0000    0.69400   0.21080   0.04680   Biso      1.000     H          0.098931  
         H65       1.0000    0.70700   0.96560   0.12630   Biso      1.000     H          0.128517  
         H66       1.0000    0.85960   0.33300   0.19500   Biso      1.000     H          0.130065  
         H67       1.0000    0.53650   0.93490   0.57140   Biso      1.000     H          0.398297  
         H68       1.0000    0.90350   0.11690   0.04440   Biso      1.000     H          0.134151  
         H69       1.0000    0.69400   0.28920   0.54680   Biso      1.000     H          0.098932  
         H70       1.0000    0.70700   0.53440   0.62630   Biso      1.000     H          0.128516  
         H71       1.0000    0.03650   0.43490   0.07140   Biso      1.000     H          0.398297  
         H72       1.0000    0.87850   0.39580   0.75820   Biso      1.000     H          0.170185  
         N1        1.0000    0.73323   0.08800   0.42750   Biso      1.000     N          -0.218526           
         N2        1.0000    0.24630   0.17710   0.22490   Biso      1.000     N          -0.230835           
         N3        1.0000    0.74630   0.82290   0.22490   Biso      1.000     N          -0.230836           
         N4        1.0000    0.23323   0.91200   0.42750   Biso      1.000     N          -0.218525           
         N5        1.0000    0.75370   0.67710   0.27510   Biso      1.000     N          -0.23083  
         N6        1.0000    0.25370   0.32290   0.27510   Biso      1.000     N          -0.23083  
         N7        1.0000    0.76677   0.41200   0.07250   Biso      1.000     N          -0.218526           
         N8        1.0000    0.74630   0.67710   0.72490   Biso      1.000     N          -0.230836           
         N9        1.0000    0.75370   0.82290   0.77510   Biso      1.000     N          -0.23083  
         N10       1.0000    0.23323   0.58800   0.92750   Biso      1.000     N          -0.218526           
         N11       1.0000    0.26677   0.58800   0.07250   Biso      1.000     N          -0.218526           
         N12       1.0000    0.26677   0.91200   0.57250   Biso      1.000     N          -0.218525           
         N13       1.0000    0.24630   0.32290   0.72490   Biso      1.000     N          -0.230836           
         N14       1.0000    0.25370   0.17710   0.77510   Biso      1.000     N          -0.23083  
         N15       1.0000    0.76677   0.08800   0.57250   Biso      1.000     N          -0.218526           
         N16       1.0000    0.73323   0.41200   0.92750   Biso      1.000     N          -0.218526           
         O1        1.0000    0.82658   0.68050   0.50951   Biso      1.000     O          -0.557748           
         O2        1.0000    0.87799   0.92570   0.45550   Biso      1.000     O          -0.57684  
         O3        1.0000    0.99930   0.12260   0.56990   Biso      1.000     O          -0.530094           
         O4        1.0000    0.17342   0.18050   0.99049   Biso      1.000     O          -0.557748           
         O5        1.0000    0.12201   0.42570   0.04450   Biso      1.000     O          -0.57684  
         O6        1.0000    0.00070   0.62260   0.93010   Biso      1.000     O          -0.530095           
         O7        1.0000    0.17342   0.31950   0.49049   Biso      1.000     O          -0.557748           
         O8        1.0000    0.32658   0.18050   0.00951   Biso      1.000     O          -0.557748           
         O9        1.0000    0.00070   0.87740   0.43010   Biso      1.000     O          -0.530095           
         O10       1.0000    0.37799   0.42570   0.95550   Biso      1.000     O          -0.57684  
         O11       1.0000    0.49930   0.62260   0.06990   Biso      1.000     O          -0.530094           
         O12       1.0000    0.49930   0.87740   0.56990   Biso      1.000     O          -0.530094           
         O13       1.0000    0.37799   0.07430   0.45550   Biso      1.000     O          -0.57684  
         O14       1.0000    0.32658   0.31950   0.50951   Biso      1.000     O          -0.557748           
         O15       1.0000    0.50070   0.37740   0.93010   Biso      1.000     O          -0.530095           
         O16       1.0000    0.12201   0.07430   0.54450   Biso      1.000     O          -0.57684  
         O17       1.0000    0.62201   0.57430   0.04450   Biso      1.000     O          -0.57684  
         O18       1.0000    0.67342   0.68050   0.49049   Biso      1.000     O          -0.557748           
         O19       1.0000    0.62201   0.92570   0.54450   Biso      1.000     O          -0.57684  
         O20       1.0000    0.50070   0.12260   0.43010   Biso      1.000     O          -0.530095           
         O21       1.0000    0.82658   0.81950   0.00951   Biso      1.000     O          -0.557748           
         O22       1.0000    0.87799   0.57430   0.95550   Biso      1.000     O          -0.57684  
         O23       1.0000    0.99930   0.37740   0.06990   Biso      1.000     O          -0.530094           
         O24       1.0000    0.67342   0.81950   0.99049   Biso      1.000     O          -0.557748           
         Zn1       1.0000    0.75000   0.87862   0.50000   Biso      1.000     Zn          0.746664  
         Zn2       1.0000    0.25000   0.12138   0.50000   Biso      1.000     Zn          0.746661  
         Zn3       1.0000    0.75000   0.62138   0.00000   Biso      1.000     Zn          0.746661  
         Zn4       1.0000    0.25000   0.37862   0.00000   Biso      1.000     Zn          0.746664 