
##########################################################################
#               Crystallographic Information Format file
#               Produced by PyCifRW module
#
#  This is a CIF file.  CIF has been adopted by the International
#  Union of Crystallography as the standard for data archiving and
#  transmission.
#
#  For information on this file format, follow the CIF links at
#  http://www.iucr.org
##########################################################################

data_image0

_cell_length_a                          7.0275
_cell_length_b                          18.139
_cell_length_c                          24.704
_cell_angle_alpha                       90
_cell_angle_beta                        90
_cell_angle_gamma                       99.86
_symmetry_space_group_name_H-M          'P 1'
_symmetry_int_tables_number             1
loop_
  _symmetry_equiv_pos_as_xyz
         'x, y, z' 
loop_
  _atom_site_label
  _atom_site_occupancy
  _atom_site_fract_x
  _atom_site_fract_y
  _atom_site_fract_z
  _atom_site_thermal_displace_type
  _atom_site_B_iso_or_equiv
  _atom_site_type_symbol
  _atom_site_charge
         C1        1.0000    0.59630   0.78410   0.14634   Biso      1.000     C          -0.151732           
         C2        1.0000    0.32520   0.19390   0.01234   Biso      1.000     C          0.074541  
         C3        1.0000    0.35710   0.40330   0.02766   Biso      1.000     C          0.692121  
         C4        1.0000    0.52370   0.84920   0.15560   Biso      1.000     C          0.083141  
         C5        1.0000    0.47520   0.71550   0.14888   Biso      1.000     C          0.032614  
         C6        1.0000    0.28140   0.71500   0.16060   Biso      1.000     C          -0.149404           
         C7        1.0000    0.22280   0.78280   0.17040   Biso      1.000     C          0.071146  
         C8        1.0000    0.55240   0.64440   0.13809   Biso      1.000     C          0.589322  
         C9        1.0000    0.89340   0.17540   0.42214   Biso      1.000     C          0.080384  
         C10       1.0000    0.88240   0.24840   0.40743   Biso      1.000     C          -0.128306           
         C11       1.0000    0.84630   0.29780   0.44736   Biso      1.000     C          0.029586  
         C12       1.0000    0.82300   0.27270   0.50046   Biso      1.000     C          -0.144835           
         C13       1.0000    0.83760   0.19970   0.51210   Biso      1.000     C          0.061641  
         C14       1.0000    0.82890   0.37670   0.43230   Biso      1.000     C          0.565641  
         C15       1.0000    0.37800   0.22310   0.39787   Biso      1.000     C          0.084028  
         C16       1.0000    0.38320   0.29810   0.40715   Biso      1.000     C          -0.148508           
         C17       1.0000    0.32520   0.26810   0.99975   Biso      1.000     C          -0.144739           
         C18       1.0000    0.35460   0.32170   0.04031   Biso      1.000     C          -0.00522  
         C19       1.0000    0.38320   0.29810   0.09285   Biso      1.000     C          -0.148531           
         C20       1.0000    0.37800   0.22310   0.10213   Biso      1.000     C          0.084008  
         C21       1.0000    0.61680   0.70190   0.59285   Biso      1.000     C          -0.148504           
         C22       1.0000    0.64540   0.67830   0.54031   Biso      1.000     C          -0.005216           
         C23       1.0000    0.67480   0.73190   0.49975   Biso      1.000     C          -0.144728           
         C24       1.0000    0.67480   0.80610   0.51234   Biso      1.000     C          0.074538  
         C25       1.0000    0.64290   0.59670   0.52766   Biso      1.000     C          0.692135  
         C26       1.0000    0.47630   0.15080   0.65560   Biso      1.000     C          0.083139  
         C27       1.0000    0.40370   0.21590   0.64634   Biso      1.000     C          -0.151734           
         C28       1.0000    0.35460   0.32170   0.45969   Biso      1.000     C          -0.005211           
         C29       1.0000    0.52480   0.28450   0.64888   Biso      1.000     C          0.032609  
         C30       1.0000    0.44760   0.35560   0.63809   Biso      1.000     C          0.58933   
         C31       1.0000    0.89340   0.17540   0.07786   Biso      1.000     C          0.080381  
         C32       1.0000    0.88240   0.24840   0.09257   Biso      1.000     C          -0.128323           
         C33       1.0000    0.84630   0.29780   0.05264   Biso      1.000     C          0.02958   
         C34       1.0000    0.82300   0.27270   0.99954   Biso      1.000     C          -0.144832           
         C35       1.0000    0.83760   0.19970   0.98790   Biso      1.000     C          0.061634  
         C36       1.0000    0.82890   0.37670   0.06770   Biso      1.000     C          0.565647  
         C37       1.0000    0.77720   0.21720   0.67040   Biso      1.000     C          0.071151  
         C38       1.0000    0.32520   0.26810   0.50025   Biso      1.000     C          -0.144719           
         C39       1.0000    0.32520   0.19390   0.48766   Biso      1.000     C          0.074542  
         C40       1.0000    0.35710   0.40330   0.47234   Biso      1.000     C          0.692136  
         C41       1.0000    0.52480   0.28450   0.85112   Biso      1.000     C          0.032612  
         C42       1.0000    0.71860   0.28500   0.83940   Biso      1.000     C          -0.149399           
         C43       1.0000    0.77720   0.21720   0.82960   Biso      1.000     C          0.071146  
         C44       1.0000    0.44760   0.35560   0.86191   Biso      1.000     C          0.589321  
         C45       1.0000    0.04220   0.84660   0.75000   Biso      1.000     C          0.056305  
         C46       1.0000    0.13600   0.78480   0.75000   Biso      1.000     C          -0.175858           
         C47       1.0000    0.02900   0.71300   0.75000   Biso      1.000     C          0.045384  
         C48       1.0000    0.40370   0.21590   0.85366   Biso      1.000     C          -0.151732           
         C49       1.0000    0.82870   0.70680   0.75000   Biso      1.000     C          -0.147605           
         C50       1.0000    0.13040   0.64530   0.75000   Biso      1.000     C          0.561555  
         C51       1.0000    0.95780   0.15340   0.25000   Biso      1.000     C          0.056314  
         C52       1.0000    0.86400   0.21520   0.25000   Biso      1.000     C          -0.175855           
         C53       1.0000    0.97100   0.28700   0.25000   Biso      1.000     C          0.045373  
         C54       1.0000    0.17130   0.29320   0.25000   Biso      1.000     C          -0.147606           
         C55       1.0000    0.25180   0.22890   0.25000   Biso      1.000     C          0.0578    
         C56       1.0000    0.86960   0.35470   0.25000   Biso      1.000     C          0.561553  
         C57       1.0000    0.74820   0.77110   0.75000   Biso      1.000     C          0.057803  
         C58       1.0000    0.62200   0.77690   0.60213   Biso      1.000     C          0.084038  
         C59       1.0000    0.47630   0.15080   0.84440   Biso      1.000     C          0.08314   
         C60       1.0000    0.67480   0.80610   0.98766   Biso      1.000     C          0.074537  
         C61       1.0000    0.52370   0.84920   0.34440   Biso      1.000     C          0.083139  
         C62       1.0000    0.59630   0.78410   0.35366   Biso      1.000     C          -0.151733           
         C63       1.0000    0.47520   0.71550   0.35112   Biso      1.000     C          0.032611  
         C64       1.0000    0.28140   0.71500   0.33940   Biso      1.000     C          -0.149397           
         C65       1.0000    0.22280   0.78280   0.32960   Biso      1.000     C          0.071154  
         C66       1.0000    0.55240   0.64440   0.36191   Biso      1.000     C          0.589332  
         C67       1.0000    0.10660   0.82460   0.92214   Biso      1.000     C          0.080383  
         C68       1.0000    0.64290   0.59670   0.97234   Biso      1.000     C          0.692121  
         C69       1.0000    0.11760   0.75160   0.90743   Biso      1.000     C          -0.128314           
         C70       1.0000    0.17700   0.72730   0.00046   Biso      1.000     C          -0.144837           
         C71       1.0000    0.16240   0.80030   0.01210   Biso      1.000     C          0.06163   
         C72       1.0000    0.17110   0.62330   0.93230   Biso      1.000     C          0.565647  
         C73       1.0000    0.62200   0.77690   0.89787   Biso      1.000     C          0.084008  
         C74       1.0000    0.61680   0.70190   0.90715   Biso      1.000     C          -0.148514           
         C75       1.0000    0.64540   0.67830   0.95969   Biso      1.000     C          -0.005221           
         C76       1.0000    0.67480   0.73190   0.00025   Biso      1.000     C          -0.144742           
         C77       1.0000    0.15370   0.70220   0.94736   Biso      1.000     C          0.029581  
         C78       1.0000    0.17110   0.62330   0.56770   Biso      1.000     C          0.565643  
         C79       1.0000    0.71860   0.28500   0.66060   Biso      1.000     C          -0.149388           
         C80       1.0000    0.17700   0.72730   0.49954   Biso      1.000     C          -0.144837           
         C81       1.0000    0.15370   0.70220   0.55264   Biso      1.000     C          0.029583  
         C82       1.0000    0.11760   0.75160   0.59257   Biso      1.000     C          -0.128295           
         C83       1.0000    0.10660   0.82460   0.57786   Biso      1.000     C          0.080388  
         C84       1.0000    0.16240   0.80030   0.48790   Biso      1.000     C          0.061635  
         Cu1       1.0000    0.27162   0.06566   0.25000   Biso      1.000     Cu          0.12986   
         Cu2       1.0000    0.72838   0.93434   0.75000   Biso      1.000     Cu          0.129856  
         Cu3       1.0000    0.74959   0.05335   0.81578   Biso      1.000     Cu          0.16521   
         Cu4       1.0000    0.67291   0.93955   0.91939   Biso      1.000     Cu          0.192448  
         Cu5       1.0000    0.25041   0.94665   0.31578   Biso      1.000     Cu          0.165206  
         Cu6       1.0000    0.32709   0.06045   0.41939   Biso      1.000     Cu          0.192476  
         Cu7       1.0000    0.12083   0.95596   0.99243   Biso      1.000     Cu          0.166132  
         Cu8       1.0000    0.25041   0.94665   0.18422   Biso      1.000     Cu          0.165218  
         Cu9       1.0000    0.32709   0.06045   0.08061   Biso      1.000     Cu          0.192438  
         Cu10      1.0000    0.87917   0.04404   0.00757   Biso      1.000     Cu          0.166132  
         Cu11      1.0000    0.74959   0.05335   0.68422   Biso      1.000     Cu          0.165203  
         Cu12      1.0000    0.67291   0.93955   0.58061   Biso      1.000     Cu          0.192475  
         Cu13      1.0000    0.12083   0.95596   0.50757   Biso      1.000     Cu          0.166116  
         Cu14      1.0000    0.87917   0.04404   0.49243   Biso      1.000     Cu          0.166116  
         H1        1.0000    0.30720   0.15870   0.98460   Biso      1.000     H          0.084293  
         H2        1.0000    0.30550   0.28200   0.96420   Biso      1.000     H          0.124816  
         H3        1.0000    0.40550   0.33240   0.12110   Biso      1.000     H          0.135018  
         H4        1.0000    0.39470   0.20750   0.13740   Biso      1.000     H          0.092499  
         H5        1.0000    0.82210   0.18300   0.95230   Biso      1.000     H          0.090313  
         H6        1.0000    0.79780   0.30490   0.97220   Biso      1.000     H          0.129274  
         H7        1.0000    0.89890   0.26380   0.12840   Biso      1.000     H          0.142959  
         H8        1.0000    0.91520   0.14180   0.10470   Biso      1.000     H          0.092091  
         H9        1.0000    0.80630   0.32960   0.66180   Biso      1.000     H          0.135448  
         H10       1.0000    0.10110   0.73620   0.62840   Biso      1.000     H          0.142965  
         H11       1.0000    0.39280   0.10520   0.65330   Biso      1.000     H          0.0851    
         H12       1.0000    0.69280   0.84130   0.48460   Biso      1.000     H          0.084301  
         H13       1.0000    0.69450   0.71800   0.46420   Biso      1.000     H          0.124826  
         H14       1.0000    0.59450   0.66760   0.62110   Biso      1.000     H          0.135026  
         H15       1.0000    0.60530   0.79250   0.63740   Biso      1.000     H          0.09251   
         H16       1.0000    0.17790   0.81700   0.45230   Biso      1.000     H          0.090323  
         H17       1.0000    0.20220   0.69510   0.47220   Biso      1.000     H          0.129279  
         H18       1.0000    0.60720   0.89480   0.15330   Biso      1.000     H          0.085103  
         H19       1.0000    0.08480   0.85820   0.60470   Biso      1.000     H          0.092098  
         H20       1.0000    0.27340   0.21360   0.63840   Biso      1.000     H          0.127255  
         H21       1.0000    0.72660   0.78640   0.13840   Biso      1.000     H          0.12726   
         H22       1.0000    0.90590   0.21810   0.67960   Biso      1.000     H          0.087264  
         H23       1.0000    0.09410   0.78190   0.17960   Biso      1.000     H          0.087261  
         H24       1.0000    0.69450   0.71800   0.03580   Biso      1.000     H          0.124819  
         H25       1.0000    0.69280   0.84130   0.01540   Biso      1.000     H          0.084296  
         H26       1.0000    0.39280   0.10520   0.84670   Biso      1.000     H          0.085103  
         H27       1.0000    0.27340   0.21360   0.86160   Biso      1.000     H          0.127259  
         H28       1.0000    0.80630   0.32960   0.83820   Biso      1.000     H          0.135451  
         H29       1.0000    0.90590   0.21810   0.82040   Biso      1.000     H          0.08726   
         H30       1.0000    0.59450   0.66760   0.87890   Biso      1.000     H          0.135013  
         H31       1.0000    0.11680   0.89420   0.75000   Biso      1.000     H          0.07707   
         H32       1.0000    0.19370   0.67040   0.16180   Biso      1.000     H          0.135454  
         H33       1.0000    0.61420   0.76570   0.75000   Biso      1.000     H          0.090074  
         H34       1.0000    0.88320   0.10580   0.25000   Biso      1.000     H          0.077071  
         H35       1.0000    0.72980   0.20830   0.25000   Biso      1.000     H          0.117289  
         H36       1.0000    0.24970   0.34000   0.25000   Biso      1.000     H          0.142645  
         H37       1.0000    0.38580   0.23430   0.25000   Biso      1.000     H          0.090078  
         H38       1.0000    0.27020   0.79170   0.75000   Biso      1.000     H          0.117287  
         H39       1.0000    0.60530   0.79250   0.86260   Biso      1.000     H          0.092495  
         H40       1.0000    0.75030   0.66000   0.75000   Biso      1.000     H          0.142638  
         H41       1.0000    0.20220   0.69510   0.02780   Biso      1.000     H          0.129275  
         H42       1.0000    0.17790   0.81700   0.04770   Biso      1.000     H          0.090316  
         H43       1.0000    0.91520   0.14180   0.39530   Biso      1.000     H          0.092102  
         H44       1.0000    0.89890   0.26380   0.37160   Biso      1.000     H          0.142974  
         H45       1.0000    0.79780   0.30490   0.52780   Biso      1.000     H          0.12928   
         H46       1.0000    0.82210   0.18300   0.54770   Biso      1.000     H          0.090322  
         H47       1.0000    0.39470   0.20750   0.36260   Biso      1.000     H          0.092518  
         H48       1.0000    0.30550   0.28200   0.53580   Biso      1.000     H          0.124825  
         H49       1.0000    0.40550   0.33240   0.37890   Biso      1.000     H          0.135036  
         H50       1.0000    0.60720   0.89480   0.34670   Biso      1.000     H          0.085102  
         H51       1.0000    0.72660   0.78640   0.36160   Biso      1.000     H          0.127256  
         H52       1.0000    0.19370   0.67040   0.33820   Biso      1.000     H          0.135453  
         H53       1.0000    0.09410   0.78190   0.32040   Biso      1.000     H          0.087265  
         H54       1.0000    0.08480   0.85820   0.89530   Biso      1.000     H          0.09209   
         H55       1.0000    0.10110   0.73620   0.87160   Biso      1.000     H          0.142955  
         H56       1.0000    0.30720   0.15870   0.51540   Biso      1.000     H          0.084302  
         I1        1.0000    0.03092   0.05825   0.75000   Biso      1.000     I          -0.248586           
         I2        1.0000    0.52371   0.05732   0.32980   Biso      1.000     I          -0.248764           
         I3        1.0000    0.96908   0.94175   0.25000   Biso      1.000     I          -0.248591           
         I4        1.0000    0.50000   0.00000   0.00000   Biso      1.000     I          -0.320997           
         I5        1.0000    0.50000   0.00000   0.50000   Biso      1.000     I          -0.320947           
         I6        1.0000    0.47629   0.94268   0.82980   Biso      1.000     I          -0.248759           
         I7        1.0000    0.01026   0.02946   0.91007   Biso      1.000     I          -0.270229           
         I8        1.0000    0.98974   0.97054   0.41007   Biso      1.000     I          -0.27016  
         I9        1.0000    0.01026   0.02946   0.58993   Biso      1.000     I          -0.270159           
         I10       1.0000    0.98974   0.97054   0.08993   Biso      1.000     I          -0.270236           
         I11       1.0000    0.47629   0.94268   0.67020   Biso      1.000     I          -0.248749           
         I12       1.0000    0.52371   0.05732   0.17020   Biso      1.000     I          -0.248774           
         N1        1.0000    0.35000   0.17073   0.43712   Biso      1.000     N          -0.168981           
         N2        1.0000    0.87390   0.15136   0.47319   Biso      1.000     N          -0.159753           
         N3        1.0000    0.33770   0.84930   0.16770   Biso      1.000     N          -0.155009           
         N4        1.0000    0.35000   0.17073   0.06288   Biso      1.000     N          -0.169004           
         N5        1.0000    0.87390   0.15136   0.02681   Biso      1.000     N          -0.159761           
         N6        1.0000    0.66230   0.15070   0.66770   Biso      1.000     N          -0.154998           
         N7        1.0000    0.65000   0.82927   0.56288   Biso      1.000     N          -0.168988           
         N8        1.0000    0.65000   0.82927   0.93712   Biso      1.000     N          -0.169003           
         N9        1.0000    0.33770   0.84930   0.33230   Biso      1.000     N          -0.155    
         N10       1.0000    0.66230   0.15070   0.83230   Biso      1.000     N          -0.155008           
         N11       1.0000    0.85030   0.84060   0.75000   Biso      1.000     N          -0.173226           
         N12       1.0000    0.14970   0.15940   0.25000   Biso      1.000     N          -0.173225           
         N13       1.0000    0.12610   0.84864   0.52681   Biso      1.000     N          -0.159754           
         N14       1.0000    0.12610   0.84864   0.97319   Biso      1.000     N          -0.159762           
         Nd1       1.0000    0.27833   0.48400   0.59913   Biso      1.000     Nd          2.146709  
         Nd2       1.0000    0.27833   0.48400   0.90087   Biso      1.000     Nd          2.146672  
         Nd3       1.0000    0.72167   0.51600   0.40087   Biso      1.000     Nd          2.146715  
         Nd4       1.0000    0.72167   0.51600   0.09913   Biso      1.000     Nd          2.146675  
         O1        1.0000    0.02260   0.58170   0.75000   Biso      1.000     O          -0.683553           
         O2        1.0000    0.31040   0.65620   0.75000   Biso      1.000     O          -0.639286           
         O3        1.0000    0.26890   0.35246   0.86404   Biso      1.000     O          -0.689788           
         O4        1.0000    0.56300   0.41606   0.86901   Biso      1.000     O          -0.63059  
         O5        1.0000    0.71030   0.58309   0.01774   Biso      1.000     O          -0.678467           
         O6        1.0000    0.57850   0.54937   0.93715   Biso      1.000     O          -0.653075           
         O7        1.0000    0.16650   0.60512   0.88324   Biso      1.000     O          -0.6315   
         O8        1.0000    0.19950   0.57836   0.96965   Biso      1.000     O          -0.64663  
         O9        1.0000    0.73110   0.64754   0.36404   Biso      1.000     O          -0.689785           
         O10       1.0000    0.43700   0.58394   0.36901   Biso      1.000     O          -0.630595           
         O11       1.0000    0.28970   0.41691   0.51774   Biso      1.000     O          -0.678453           
         O12       1.0000    0.42150   0.45063   0.43715   Biso      1.000     O          -0.653054           
         O13       1.0000    0.83350   0.39488   0.38324   Biso      1.000     O          -0.631474           
         O14       1.0000    0.80050   0.42164   0.46965   Biso      1.000     O          -0.646634           
         O15       1.0000    0.73110   0.64754   0.13596   Biso      1.000     O          -0.689792           
         O16       1.0000    0.43700   0.58394   0.13099   Biso      1.000     O          -0.630592           
         O17       1.0000    0.28970   0.41691   0.98226   Biso      1.000     O          -0.678469           
         O18       1.0000    0.42150   0.45063   0.06285   Biso      1.000     O          -0.653079           
         O19       1.0000    0.83350   0.39488   0.11676   Biso      1.000     O          -0.631503           
         O20       1.0000    0.80050   0.42164   0.03035   Biso      1.000     O          -0.64663  
         O21       1.0000    0.26890   0.35246   0.63596   Biso      1.000     O          -0.689781           
         O22       1.0000    0.56300   0.41606   0.63099   Biso      1.000     O          -0.630591           
         O23       1.0000    0.71030   0.58309   0.48226   Biso      1.000     O          -0.678459           
         O24       1.0000    0.57850   0.54937   0.56285   Biso      1.000     O          -0.653056           
         O25       1.0000    0.16650   0.60512   0.61676   Biso      1.000     O          -0.631472           
         O26       1.0000    0.19950   0.57836   0.53035   Biso      1.000     O          -0.646638           
         O27       1.0000    0.68960   0.34380   0.25000   Biso      1.000     O          -0.63927  
         O28       1.0000    0.97740   0.41830   0.25000   Biso      1.000     O          -0.683534 