
##########################################################################
#               Crystallographic Information Format file
#               Produced by PyCifRW module
#
#  This is a CIF file.  CIF has been adopted by the International
#  Union of Crystallography as the standard for data archiving and
#  transmission.
#
#  For information on this file format, follow the CIF links at
#  http://www.iucr.org
##########################################################################

data_image0

_cell_length_a                          9.0356
_cell_length_b                          16.6644
_cell_length_c                          17.2419
_cell_angle_alpha                       117.194
_cell_angle_beta                        98.948
_cell_angle_gamma                       93.947
_symmetry_space_group_name_H-M          'P 1'
_symmetry_int_tables_number             1
loop_
  _symmetry_equiv_pos_as_xyz
         'x, y, z' 
loop_
  _atom_site_label
  _atom_site_occupancy
  _atom_site_fract_x
  _atom_site_fract_y
  _atom_site_fract_z
  _atom_site_thermal_displace_type
  _atom_site_B_iso_or_equiv
  _atom_site_type_symbol
  _atom_site_charge
         C1        1.0000    0.35430   0.02190   0.11840   Biso      1.000     C          -0.10834300000000001          
         C2        1.0000    0.42510   0.61900   0.91050   Biso      1.000     C          -0.14237  
         C3        1.0000    0.58590   0.90830   0.89520   Biso      1.000     C          -0.013743           
         C4        1.0000    0.64570   0.97810   0.88160   Biso      1.000     C          -0.108341           
         C5        1.0000    0.42080   0.52990   0.89360   Biso      1.000     C          0.08367999999999999           
         C6        1.0000    0.75320   0.05010   0.94850   Biso      1.000     C          -0.00882  
         C7        1.0000    0.79960   0.05100   0.02910   Biso      1.000     C          -0.106777           
         C8        1.0000    0.49010   0.46480   0.82390   Biso      1.000     C          0.273771  
         C9        1.0000    0.97180   0.16240   0.47320   Biso      1.000     C          0.561438  
         C10       1.0000    0.98170   0.32890   0.80090   Biso      1.000     C          0.561013  
         C11       1.0000    0.18390   0.49620   0.64950   Biso      1.000     C          0.567695  
         C12       1.0000    0.01270   0.24920   0.56070   Biso      1.000     C          -0.010464           
         C13       1.0000    0.98230   0.25020   0.63740   Biso      1.000     C          -0.144775           
         C14       1.0000    0.59240   0.24940   0.71450   Biso      1.000     C          -0.048095           
         C15       1.0000    0.01610   0.33010   0.71830   Biso      1.000     C          -0.023176           
         C16       1.0000    0.08180   0.40980   0.72250   Biso      1.000     C          -0.129004           
         C17       1.0000    0.24630   0.11080   0.60660   Biso      1.000     C          0.167888  
         C18       1.0000    0.11630   0.41010   0.64630   Biso      1.000     C          -0.011576999999999999         
         C19       1.0000    0.08000   0.32940   0.56620   Biso      1.000     C          -0.12149700000000001          
         C20       1.0000    0.39330   0.14790   0.72750   Biso      1.000     C          0.1098    
         C21       1.0000    0.41410   0.09170   0.10480   Biso      1.000     C          -0.013741999999999999         
         C22       1.0000    0.24680   0.94990   0.05150   Biso      1.000     C          -0.00882  
         C23       1.0000    0.92000   0.67060   0.43380   Biso      1.000     C          -0.1215   
         C24       1.0000    0.88370   0.58990   0.35370   Biso      1.000     C          -0.011576000000000001         
         C25       1.0000    0.20040   0.94900   0.97090   Biso      1.000     C          -0.106777           
         C26       1.0000    0.91820   0.59020   0.27750   Biso      1.000     C          -0.12900599999999998          
         C27       1.0000    0.98390   0.66990   0.28170   Biso      1.000     C          -0.023174           
         C28       1.0000    0.02820   0.83760   0.52680   Biso      1.000     C          0.561438  
         C29       1.0000    0.01770   0.74980   0.36260   Biso      1.000     C          -0.144776           
         C30       1.0000    0.98730   0.75080   0.43930   Biso      1.000     C          -0.010462           
         C31       1.0000    0.81610   0.50380   0.35050   Biso      1.000     C          0.567695  
         C32       1.0000    0.74240   0.98160   0.04410   Biso      1.000     C          -0.01226  
         C33       1.0000    0.63350   0.90940   0.97680   Biso      1.000     C          -0.120585           
         C34       1.0000    0.47520   0.82770   0.82290   Biso      1.000     C          0.57913   
         C35       1.0000    0.36650   0.09060   0.02320   Biso      1.000     C          -0.120585           
         C36       1.0000    0.25760   0.01840   0.95590   Biso      1.000     C          -0.01226  
         C37       1.0000    0.60670   0.85210   0.27250   Biso      1.000     C          0.1098    
         C38       1.0000    0.18330   0.87330   0.06510   Biso      1.000     C          0.575231  
         C39       1.0000    0.75370   0.88920   0.39340   Biso      1.000     C          0.167888  
         C40       1.0000    0.52480   0.17230   0.17710   Biso      1.000     C          0.57913   
         C41       1.0000    0.40760   0.75060   0.28550   Biso      1.000     C          -0.048095           
         C42       1.0000    0.20600   0.01690   0.86780   Biso      1.000     C          0.5785359999999999  
         C43       1.0000    0.73100   0.43230   0.61570   Biso      1.000     C          -0.155176           
         C44       1.0000    0.50990   0.53520   0.17610   Biso      1.000     C          0.273771  
         C45       1.0000    0.57920   0.47010   0.10640   Biso      1.000     C          0.083676  
         C46       1.0000    0.57490   0.38100   0.08950   Biso      1.000     C          -0.14236500000000002          
         C47       1.0000    0.75920   0.41480   0.53340   Biso      1.000     C          0.114247  
         C48       1.0000    0.81670   0.12670   0.93490   Biso      1.000     C          0.575231  
         C49       1.0000    0.58010   0.28730   0.46470   Biso      1.000     C          0.108319  
         C50       1.0000    0.65240   0.32480   0.02910   Biso      1.000     C          0.114944  
         C51       1.0000    0.54670   0.29950   0.54390   Biso      1.000     C          -0.1692   
         C52       1.0000    0.79400   0.98310   0.13220   Biso      1.000     C          0.5785359999999999  
         C53       1.0000    0.34760   0.67520   0.97090   Biso      1.000     C          0.114945  
         C54       1.0000    0.26900   0.56770   0.38430   Biso      1.000     C          -0.155176           
         C55       1.0000    0.26660   0.56140   0.00030   Biso      1.000     C          0.084281  
         C56       1.0000    0.24080   0.58520   0.46660   Biso      1.000     C          0.114247  
         C57       1.0000    0.34120   0.50080   0.94050   Biso      1.000     C          -0.168256           
         C58       1.0000    0.41990   0.71270   0.53530   Biso      1.000     C          0.108319  
         C59       1.0000    0.73340   0.43860   0.99970   Biso      1.000     C          0.084281  
         C60       1.0000    0.57590   0.39850   0.70680   Biso      1.000     C          0.23114400000000002           
         C61       1.0000    0.37720   0.62470   0.37870   Biso      1.000     C          0.082084  
         C62       1.0000    0.42410   0.60150   0.29320   Biso      1.000     C          0.23114400000000002           
         C63       1.0000    0.62280   0.37530   0.62130   Biso      1.000     C          0.082086  
         C64       1.0000    0.65880   0.49920   0.05950   Biso      1.000     C          -0.168255           
         C65       1.0000    0.45330   0.70050   0.45610   Biso      1.000     C          -0.16919700000000001          
         C66       1.0000    0.01830   0.67110   0.19910   Biso      1.000     C          0.561013  
         Cd1       1.0000    0.13135   0.98569   0.69538   Biso      1.000     Cd          0.95891   
         Cd2       1.0000    0.69044   0.32970   0.31785   Biso      1.000     Cd          0.9370040000000001  
         Cd3       1.0000    0.05440   0.71352   0.06228   Biso      1.000     Cd          0.931042  
         Cd4       1.0000    0.86865   0.01431   0.30462   Biso      1.000     Cd          0.95891   
         Cd5       1.0000    0.30956   0.67030   0.68215   Biso      1.000     Cd          0.9370040000000001  
         Cd6       1.0000    0.94560   0.28648   0.93772   Biso      1.000     Cd          0.931042  
         H1        1.0000    0.12940   0.90070   0.92590   Biso      1.000     H          0.131249  
         H2        1.0000    0.33780   0.44130   0.93180   Biso      1.000     H          0.12821   
         H3        1.0000    0.52520   0.74220   0.45460   Biso      1.000     H          0.124234  
         H4        1.0000    0.66220   0.55870   0.06820   Biso      1.000     H          0.12821   
         H5        1.0000    0.78580   0.45860   0.96780   Biso      1.000     H          0.09187100000000001           
         H6        1.0000    0.47480   0.25780   0.54540   Biso      1.000     H          0.124234  
         H7        1.0000    0.64780   0.26450   0.01820   Biso      1.000     H          0.1023    
         H8        1.0000    0.52730   0.23680   0.41250   Biso      1.000     H          0.109601  
         H9        1.0000    0.83360   0.45410   0.53060   Biso      1.000     H          0.10670299999999999           
         H10       1.0000    0.47270   0.76320   0.58750   Biso      1.000     H          0.109601  
         H11       1.0000    0.35500   0.76860   0.33440   Biso      1.000     H          0.132417  
         H12       1.0000    0.78590   0.48290   0.66710   Biso      1.000     H          0.140706  
         H13       1.0000    0.34280   0.75310   0.23650   Biso      1.000     H          0.136674  
         H14       1.0000    0.83720   0.91710   0.44070   Biso      1.000     H          0.111891  
         H15       1.0000    0.56160   0.84570   0.21720   Biso      1.000     H          0.132666  
         H16       1.0000    0.40660   0.13740   0.01360   Biso      1.000     H          0.12147899999999999           
         H17       1.0000    0.51960   0.35890   0.11890   Biso      1.000     H          0.13513699999999998           
         H18       1.0000    0.21420   0.54140   0.03220   Biso      1.000     H          0.09187100000000001           
         H19       1.0000    0.16640   0.54590   0.46940   Biso      1.000     H          0.10670299999999999           
         H20       1.0000    0.35220   0.73550   0.98180   Biso      1.000     H          0.1023    
         H21       1.0000    0.89670   0.53630   0.22350   Biso      1.000     H          0.12453499999999999           
         H22       1.0000    0.89870   0.67090   0.48500   Biso      1.000     H          0.12898199999999999           
         H23       1.0000    0.38610   0.02300   0.17290   Biso      1.000     H          0.122768  
         H24       1.0000    0.10130   0.32910   0.51500   Biso      1.000     H          0.12898099999999998           
         H25       1.0000    0.43840   0.15430   0.78280   Biso      1.000     H          0.132666  
         H26       1.0000    0.06160   0.80340   0.36540   Biso      1.000     H          0.121894  
         H27       1.0000    0.16280   0.08290   0.55930   Biso      1.000     H          0.111891  
         H28       1.0000    0.10330   0.46370   0.77650   Biso      1.000     H          0.12453499999999999           
         H29       1.0000    0.65720   0.24690   0.76350   Biso      1.000     H          0.136674  
         H30       1.0000    0.64500   0.23140   0.66560   Biso      1.000     H          0.132417  
         H31       1.0000    0.87060   0.09930   0.07410   Biso      1.000     H          0.131249  
         H32       1.0000    0.61390   0.97700   0.82710   Biso      1.000     H          0.122768  
         H33       1.0000    0.59340   0.86260   0.98640   Biso      1.000     H          0.12147899999999999           
         H34       1.0000    0.48040   0.64110   0.88110   Biso      1.000     H          0.13513699999999998           
         H35       1.0000    0.21410   0.51710   0.33290   Biso      1.000     H          0.140706  
         H36       1.0000    0.93840   0.19660   0.63460   Biso      1.000     H          0.121894  
         N1        1.0000    0.56140   0.34150   0.74260   Biso      1.000     N          0.074515  
         N2        1.0000    0.35750   0.16550   0.60820   Biso      1.000     N          -0.263714           
         N3        1.0000    0.26080   0.09730   0.67920   Biso      1.000     N          -0.31224  
         N4        1.0000    0.45190   0.18770   0.68650   Biso      1.000     N          0.16716199999999998           
         N5        1.0000    0.53480   0.47730   0.75760   Biso      1.000     N          -0.397233           
         N6        1.0000    0.68290   0.34310   0.45780   Biso      1.000     N          -0.23345100000000002          
         N7        1.0000    0.73920   0.90270   0.32080   Biso      1.000     N          -0.31224  
         N8        1.0000    0.64250   0.83450   0.39180   Biso      1.000     N          -0.263714           
         N9        1.0000    0.54810   0.81230   0.31350   Biso      1.000     N          0.16716199999999998           
         N10       1.0000    0.43860   0.65850   0.25740   Biso      1.000     N          0.074515  
         N11       1.0000    0.49510   0.61600   0.18230   Biso      1.000     N          -0.30089499999999997          
         N12       1.0000    0.50490   0.38400   0.81770   Biso      1.000     N          -0.30089499999999997          
         N13       1.0000    0.46520   0.52270   0.24240   Biso      1.000     N          -0.397233           
         N14       1.0000    0.73480   0.35270   0.98480   Biso      1.000     N          -0.266179           
         N15       1.0000    0.31710   0.65690   0.54220   Biso      1.000     N          -0.23345100000000002          
         N16       1.0000    0.26520   0.64730   0.01520   Biso      1.000     N          -0.266179           
         O1        1.0000    0.01790   0.59880   0.13070   Biso      1.000     O          -0.566394           
         O2        1.0000    0.07940   0.90940   0.52870   Biso      1.000     O          -0.577248           
         O3        1.0000    0.00890   0.83430   0.59670   Biso      1.000     O          -0.555025           
         O4        1.0000    0.54350   0.18320   0.25610   Biso      1.000     O          -0.592867           
         O5        1.0000    0.22100   0.87440   0.13950   Biso      1.000     O          -0.59878  
         O6        1.0000    0.09590   0.80610   0.00020   Biso      1.000     O          -0.544664           
         O7        1.0000    0.12170   0.94640   0.80560   Biso      1.000     O          -0.542934           
         O8        1.0000    0.25040   0.08260   0.85720   Biso      1.000     O          -0.596151           
         O9        1.0000    0.04770   0.74840   0.20310   Biso      1.000     O          -0.553445           
         O10       1.0000    0.59010   0.22860   0.16090   Biso      1.000     O          -0.538141           
         O11       1.0000    0.22380   0.49240   0.58220   Biso      1.000     O          -0.583595           
         O12       1.0000    0.20010   0.57060   0.72040   Biso      1.000     O          -0.548083           
         O13       1.0000    0.98210   0.40120   0.86930   Biso      1.000     O          -0.566394           
         O14       1.0000    0.95230   0.25160   0.79690   Biso      1.000     O          -0.553445           
         O15       1.0000    0.92060   0.09060   0.47130   Biso      1.000     O          -0.577248           
         O16       1.0000    0.99110   0.16570   0.40330   Biso      1.000     O          -0.555025           
         O17       1.0000    0.40990   0.77140   0.83910   Biso      1.000     O          -0.538141           
         O18       1.0000    0.45650   0.81680   0.74390   Biso      1.000     O          -0.5928680000000001           
         O19       1.0000    0.77900   0.12560   0.86050   Biso      1.000     O          -0.59878  
         O20       1.0000    0.90410   0.19390   0.99980   Biso      1.000     O          -0.544664           
         O21       1.0000    0.87830   0.05360   0.19440   Biso      1.000     O          -0.542934           
         O22       1.0000    0.74960   0.91740   0.14280   Biso      1.000     O          -0.596151           
         O23       1.0000    0.79990   0.42940   0.27960   Biso      1.000     O          -0.548083           
         O24       1.0000    0.77620   0.50760   0.41780   Biso      1.000     O          -0.583595 