
##########################################################################
#               Crystallographic Information Format file
#               Produced by PyCifRW module
#
#  This is a CIF file.  CIF has been adopted by the International
#  Union of Crystallography as the standard for data archiving and
#  transmission.
#
#  For information on this file format, follow the CIF links at
#  http://www.iucr.org
##########################################################################

data_image0

_cell_length_a                          18.3489
_cell_length_b                          18.349
_cell_length_c                          19.8664
_cell_angle_alpha                       64.5275
_cell_angle_beta                        64.5277
_cell_angle_gamma                       93.9399
_symmetry_space_group_name_H-M          'P 1'
_symmetry_int_tables_number             1
loop_
  _symmetry_equiv_pos_as_xyz
         'x, y, z' 
loop_
  _atom_site_label
  _atom_site_occupancy
  _atom_site_fract_x
  _atom_site_fract_y
  _atom_site_fract_z
  _atom_site_thermal_displace_type
  _atom_site_B_iso_or_equiv
  _atom_site_type_symbol
  _atom_site_charge
         C1        1.0000    0.60488   0.24928   0.37904   Biso      1.000     C          0.004335  
         C2        1.0000    0.51952   0.00492   0.92196   Biso      1.000     C          0.061407  
         C3        1.0000    0.53490   0.00730   0.84060   Biso      1.000     C          -0.055676           
         C4        1.0000    0.70935   0.98095   0.58390   Biso      1.000     C          -0.136216           
         C5        1.0000    0.62832   0.98392   0.62096   Biso      1.000     C          0.003303  
         C6        1.0000    0.59509   0.98789   0.69762   Biso      1.000     C          -0.241846           
         C7        1.0000    0.63906   0.98766   0.73448   Biso      1.000     C          0.277666  
         C8        1.0000    0.71920   0.98340   0.70140   Biso      1.000     C          -0.204588           
         C9        1.0000    0.75722   0.98022   0.62196   Biso      1.000     C          -0.005428           
         C10       1.0000    0.84870   0.98310   0.58040   Biso      1.000     C          0.590052  
         C11       1.0000    0.68480   0.42060   0.29860   Biso      1.000     C          -0.206955           
         C12       1.0000    0.72214   0.37354   0.26552   Biso      1.000     C          0.280054  
         C13       1.0000    0.68551   0.29271   0.30238   Biso      1.000     C          -0.24307  
         C14       1.0000    0.56485   0.29325   0.41610   Biso      1.000     C          -0.136207           
         C15       1.0000    0.84790   0.37550   0.15940   Biso      1.000     C          -0.05488  
         C16       1.0000    0.92688   0.44148   0.07804   Biso      1.000     C          0.061013  
         C17       1.0000    0.56560   0.15580   0.42160   Biso      1.000     C          0.606915  
         C18       1.0000    0.15130   0.01690   0.41960   Biso      1.000     C          0.590069  
         C19       1.0000    0.57740   0.98720   0.57840   Biso      1.000     C          0.607574  
         C20       1.0000    0.24278   0.01978   0.37804   Biso      1.000     C          -0.005436           
         C21       1.0000    0.57090   0.43650   0.58040   Biso      1.000     C          0.591305  
         C22       1.0000    0.57940   0.31520   0.70140   Biso      1.000     C          -0.207259           
         C23       1.0000    0.01280   0.42260   0.42160   Biso      1.000     C          0.607105  
         C24       1.0000    0.99508   0.48048   0.07804   Biso      1.000     C          0.061523  
         C25       1.0000    0.99270   0.46510   0.15940   Biso      1.000     C          -0.055823           
         C26       1.0000    0.01905   0.29065   0.41610   Biso      1.000     C          -0.136219           
         C27       1.0000    0.01608   0.37168   0.37904   Biso      1.000     C          0.00445   
         C28       1.0000    0.01211   0.40491   0.30238   Biso      1.000     C          -0.241994           
         C29       1.0000    0.01234   0.36094   0.26552   Biso      1.000     C          0.278008  
         C30       1.0000    0.01660   0.28080   0.29860   Biso      1.000     C          -0.205056           
         C31       1.0000    0.01978   0.24278   0.37804   Biso      1.000     C          -0.005535           
         C32       1.0000    0.01690   0.15130   0.41960   Biso      1.000     C          0.590309  
         C33       1.0000    0.84420   0.43440   0.57840   Biso      1.000     C          0.606282  
         C34       1.0000    0.55852   0.07312   0.92196   Biso      1.000     C          0.061097  
         C35       1.0000    0.62450   0.15210   0.84060   Biso      1.000     C          -0.05499  
         C36       1.0000    0.70675   0.43515   0.58390   Biso      1.000     C          -0.13645  
         C37       1.0000    0.75072   0.39512   0.62096   Biso      1.000     C          0.005724  
         C38       1.0000    0.70729   0.31449   0.69762   Biso      1.000     C          -0.243394           
         C39       1.0000    0.62646   0.27786   0.73448   Biso      1.000     C          0.280282  
         C40       1.0000    0.62082   0.39782   0.62196   Biso      1.000     C          -0.007138           
         C41       1.0000    0.28080   0.01660   0.29860   Biso      1.000     C          -0.204762           
         C42       1.0000    0.36094   0.01234   0.26552   Biso      1.000     C          0.277608  
         C43       1.0000    0.40491   0.01211   0.30238   Biso      1.000     C          -0.241774           
         C44       1.0000    0.00730   0.53490   0.84060   Biso      1.000     C          -0.055816           
         C45       1.0000    0.00492   0.51952   0.92196   Biso      1.000     C          0.061495  
         C46       1.0000    0.98720   0.57740   0.57840   Biso      1.000     C          0.607076  
         C47       1.0000    0.43650   0.57090   0.58040   Biso      1.000     C          0.590991  
         C48       1.0000    0.39782   0.62082   0.62196   Biso      1.000     C          -0.007217           
         C49       1.0000    0.31520   0.57940   0.70140   Biso      1.000     C          -0.206953           
         C50       1.0000    0.27786   0.62646   0.73448   Biso      1.000     C          0.28006   
         C51       1.0000    0.31449   0.70729   0.69762   Biso      1.000     C          -0.243181           
         C52       1.0000    0.39512   0.75072   0.62096   Biso      1.000     C          0.004367  
         C53       1.0000    0.43515   0.70675   0.58390   Biso      1.000     C          -0.136148           
         C54       1.0000    0.15210   0.62450   0.84060   Biso      1.000     C          -0.054868           
         C55       1.0000    0.07312   0.55852   0.92196   Biso      1.000     C          0.061032  
         C56       1.0000    0.43440   0.84420   0.57840   Biso      1.000     C          0.606883  
         C57       1.0000    0.46220   0.93320   0.00000   Biso      1.000     C          -0.210656           
         C58       1.0000    0.53780   0.06680   0.00000   Biso      1.000     C          -0.210628           
         C59       1.0000    0.06680   0.53780   0.00000   Biso      1.000     C          -0.210702           
         C60       1.0000    0.93320   0.46220   0.00000   Biso      1.000     C          -0.210721           
         C61       1.0000    0.98095   0.70935   0.58390   Biso      1.000     C          -0.136184           
         C62       1.0000    0.98392   0.62832   0.62096   Biso      1.000     C          0.004521  
         C63       1.0000    0.98789   0.59509   0.69762   Biso      1.000     C          -0.241968           
         C64       1.0000    0.98766   0.63906   0.73448   Biso      1.000     C          0.278019  
         C65       1.0000    0.37168   0.01608   0.37904   Biso      1.000     C          0.00324   
         C66       1.0000    0.29065   0.01905   0.41610   Biso      1.000     C          -0.136259           
         C67       1.0000    0.46510   0.99270   0.15940   Biso      1.000     C          -0.055701           
         C68       1.0000    0.48048   0.99508   0.07804   Biso      1.000     C          0.061416  
         C69       1.0000    0.42260   0.01280   0.42160   Biso      1.000     C          0.607553  
         C70       1.0000    0.42910   0.56350   0.41960   Biso      1.000     C          0.591293  
         C71       1.0000    0.37918   0.60218   0.37804   Biso      1.000     C          -0.007087           
         C72       1.0000    0.42060   0.68480   0.29860   Biso      1.000     C          -0.207213           
         C73       1.0000    0.56350   0.42910   0.41960   Biso      1.000     C          0.590979  
         C74       1.0000    0.37354   0.72214   0.26552   Biso      1.000     C          0.280249  
         C75       1.0000    0.24928   0.60488   0.37904   Biso      1.000     C          0.005743  
         C76       1.0000    0.29325   0.56485   0.41610   Biso      1.000     C          -0.136408           
         C77       1.0000    0.37550   0.84790   0.15940   Biso      1.000     C          -0.054992           
         C78       1.0000    0.44148   0.92688   0.07804   Biso      1.000     C          0.061066  
         C79       1.0000    0.15580   0.56560   0.42160   Biso      1.000     C          0.606275  
         C80       1.0000    0.98310   0.84870   0.58040   Biso      1.000     C          0.590375  
         C81       1.0000    0.98022   0.75722   0.62196   Biso      1.000     C          -0.005513           
         C82       1.0000    0.98340   0.71920   0.70140   Biso      1.000     C          -0.204976           
         C83       1.0000    0.29271   0.68551   0.30238   Biso      1.000     C          -0.243323           
         C84       1.0000    0.60218   0.37918   0.37804   Biso      1.000     C          -0.007037           
         Cu1       1.0000    0.43476   0.00302   0.56222   Biso      1.000     Cu          0.881     
         Cu2       1.0000    0.00893   0.00893   0.55944   Biso      1.000     Cu          0.874471  
         Cu3       1.0000    0.00302   0.43476   0.56222   Biso      1.000     Cu          0.880977  
         Cu4       1.0000    0.99698   0.56524   0.43778   Biso      1.000     Cu          0.88068   
         Cu5       1.0000    0.56524   0.99698   0.43778   Biso      1.000     Cu          0.881183  
         Cu6       1.0000    0.99107   0.99107   0.44056   Biso      1.000     Cu          0.876371  
         Cu7       1.0000    0.56837   0.56837   0.44056   Biso      1.000     Cu          0.877209  
         Cu8       1.0000    0.43163   0.43163   0.55944   Biso      1.000     Cu          0.878485  
         H1        1.0000    0.71200   0.47980   0.27040   Biso      1.000     H          0.147744  
         H2        1.0000    0.93620   0.46100   0.20200   Biso      1.000     H          0.089761  
         H3        1.0000    0.03620   0.51160   0.14680   Biso      1.000     H          0.087704  
         H4        1.0000    0.02070   0.26710   0.46820   Biso      1.000     H          0.13722   
         H5        1.0000    0.00920   0.46100   0.27700   Biso      1.000     H          0.129567  
         H6        1.0000    0.01760   0.24980   0.27040   Biso      1.000     H          0.1481    
         H7        1.0000    0.66300   0.13820   0.79800   Biso      1.000     H          0.08901   
         H8        1.0000    0.65840   0.18300   0.85320   Biso      1.000     H          0.08743   
         H9        1.0000    0.53900   0.06380   0.79800   Biso      1.000     H          0.089686  
         H10       1.0000    0.73800   0.28620   0.72300   Biso      1.000     H          0.129592  
         H11       1.0000    0.52020   0.28800   0.72960   Biso      1.000     H          0.148093  
         H12       1.0000    0.71380   0.26200   0.27700   Biso      1.000     H          0.129402  
         H13       1.0000    0.48840   0.96380   0.85320   Biso      1.000     H          0.087637  
         H14       1.0000    0.73290   0.97930   0.53180   Biso      1.000     H          0.137335  
         H15       1.0000    0.53900   0.99080   0.72300   Biso      1.000     H          0.129359  
         H16       1.0000    0.75020   0.98240   0.72960   Biso      1.000     H          0.147491  
         H17       1.0000    0.88660   0.43620   0.00000   Biso      1.000     H          0.121959  
         H18       1.0000    0.73530   0.48890   0.53180   Biso      1.000     H          0.137631  
         H19       1.0000    0.51110   0.26470   0.46820   Biso      1.000     H          0.13726   
         H20       1.0000    0.11340   0.56380   0.00000   Biso      1.000     H          0.121946  
         H21       1.0000    0.86180   0.33700   0.20200   Biso      1.000     H          0.088903  
         H22       1.0000    0.81700   0.34160   0.14680   Biso      1.000     H          0.087334  
         H23       1.0000    0.56380   0.11340   0.00000   Biso      1.000     H          0.121928  
         H24       1.0000    0.13820   0.66300   0.79800   Biso      1.000     H          0.088888  
         H25       1.0000    0.18300   0.65840   0.85320   Biso      1.000     H          0.087353  
         H26       1.0000    0.48890   0.73530   0.53180   Biso      1.000     H          0.137321  
         H27       1.0000    0.28620   0.73800   0.72300   Biso      1.000     H          0.129317  
         H28       1.0000    0.28800   0.52020   0.72960   Biso      1.000     H          0.147723  
         H29       1.0000    0.06380   0.53900   0.79800   Biso      1.000     H          0.089796  
         H30       1.0000    0.96380   0.48840   0.85320   Biso      1.000     H          0.087715  
         H31       1.0000    0.97930   0.73290   0.53180   Biso      1.000     H          0.137595  
         H32       1.0000    0.99080   0.53900   0.72300   Biso      1.000     H          0.129583  
         H33       1.0000    0.43620   0.88660   0.00000   Biso      1.000     H          0.121894  
         H34       1.0000    0.33700   0.86180   0.20200   Biso      1.000     H          0.089004  
         H35       1.0000    0.98240   0.75020   0.72960   Biso      1.000     H          0.147844  
         H36       1.0000    0.46100   0.00920   0.27700   Biso      1.000     H          0.129397  
         H37       1.0000    0.26710   0.02070   0.46820   Biso      1.000     H          0.136978  
         H38       1.0000    0.51160   0.03620   0.14680   Biso      1.000     H          0.087664  
         H39       1.0000    0.24980   0.01760   0.27040   Biso      1.000     H          0.147718  
         H40       1.0000    0.47980   0.71200   0.27040   Biso      1.000     H          0.148114  
         H41       1.0000    0.26200   0.71380   0.27700   Biso      1.000     H          0.129597  
         H42       1.0000    0.26470   0.51110   0.46820   Biso      1.000     H          0.137634  
         H43       1.0000    0.34160   0.81700   0.14680   Biso      1.000     H          0.087364  
         H44       1.0000    0.46100   0.93620   0.20200   Biso      1.000     H          0.089667  
         O1        1.0000    0.49553   0.01005   0.38582   Biso      1.000     O          -0.527191           
         O2        1.0000    0.12441   0.49443   0.49076   Biso      1.000     O          -0.537234           
         O3        1.0000    0.38483   0.01481   0.49076   Biso      1.000     O          -0.53712  
         O4        1.0000    0.38956   0.00962   0.18992   Biso      1.000     O          -0.208058           
         O5        1.0000    0.38782   0.48840   0.48628   Biso      1.000     O          -0.536756           
         O6        1.0000    0.11865   0.60413   0.38582   Biso      1.000     O          -0.526554           
         O7        1.0000    0.50428   0.60432   0.38448   Biso      1.000     O          -0.513542           
         O8        1.0000    0.11124   0.01120   0.38448   Biso      1.000     O          -0.513428           
         O9        1.0000    0.98519   0.61517   0.50924   Biso      1.000     O          -0.537282           
         O10       1.0000    0.97468   0.87410   0.51372   Biso      1.000     O          -0.535663           
         O11       1.0000    0.98995   0.50447   0.61418   Biso      1.000     O          -0.52657  
         O12       1.0000    0.98880   0.88876   0.61552   Biso      1.000     O          -0.51315  
         O13       1.0000    0.99038   0.61044   0.81008   Biso      1.000     O          -0.20778  
         O14       1.0000    0.51160   0.61218   0.51372   Biso      1.000     O          -0.536775           
         O15       1.0000    0.39587   0.88135   0.61418   Biso      1.000     O          -0.526615           
         O16       1.0000    0.39568   0.49572   0.61552   Biso      1.000     O          -0.513888           
         O17       1.0000    0.12590   0.02532   0.48628   Biso      1.000     O          -0.535936           
         O18       1.0000    0.42052   0.80046   0.18992   Biso      1.000     O          -0.207934           
         O19       1.0000    0.80046   0.42052   0.18992   Biso      1.000     O          -0.208249           
         O20       1.0000    0.49572   0.39568   0.61552   Biso      1.000     O          -0.513851           
         O21       1.0000    0.60432   0.50428   0.38448   Biso      1.000     O          -0.513588           
         O22       1.0000    0.50557   0.87559   0.50924   Biso      1.000     O          -0.53757  
         O23       1.0000    0.87410   0.97468   0.51372   Biso      1.000     O          -0.535827           
         O24       1.0000    0.50447   0.98995   0.61418   Biso      1.000     O          -0.526857           
         O25       1.0000    0.88876   0.98880   0.61552   Biso      1.000     O          -0.513399           
         O26       1.0000    0.61517   0.98519   0.50924   Biso      1.000     O          -0.537681           
         O27       1.0000    0.61044   0.99038   0.81008   Biso      1.000     O          -0.207997           
         O28       1.0000    0.61218   0.51160   0.51372   Biso      1.000     O          -0.536662           
         O29       1.0000    0.88135   0.39587   0.61418   Biso      1.000     O          -0.526632           
         O30       1.0000    0.87559   0.50557   0.50924   Biso      1.000     O          -0.537354           
         O31       1.0000    0.57948   0.19954   0.81008   Biso      1.000     O          -0.207964           
         O32       1.0000    0.02532   0.12590   0.48628   Biso      1.000     O          -0.535763           
         O33       1.0000    0.01005   0.49553   0.38582   Biso      1.000     O          -0.526706           
         O34       1.0000    0.01120   0.11124   0.38448   Biso      1.000     O          -0.513326           
         O35       1.0000    0.01481   0.38483   0.49076   Biso      1.000     O          -0.537184           
         O36       1.0000    0.00962   0.38956   0.18992   Biso      1.000     O          -0.207888           
         O37       1.0000    0.48840   0.38782   0.48628   Biso      1.000     O          -0.536888           
         O38       1.0000    0.60413   0.11865   0.38582   Biso      1.000     O          -0.526781           
         O39       1.0000    0.49443   0.12441   0.49076   Biso      1.000     O          -0.537207           
         O40       1.0000    0.19954   0.57948   0.81008   Biso      1.000     O          -0.20825 