
##########################################################################
#               Crystallographic Information Format file
#               Produced by PyCifRW module
#
#  This is a CIF file.  CIF has been adopted by the International
#  Union of Crystallography as the standard for data archiving and
#  transmission.
#
#  For information on this file format, follow the CIF links at
#  http://www.iucr.org
##########################################################################

data_image0

_cell_length_a                          7.955
_cell_length_b                          9.693
_cell_length_c                          15.869
_cell_angle_alpha                       90
_cell_angle_beta                        90
_cell_angle_gamma                       96.356
_symmetry_space_group_name_H-M          'P 1'
_symmetry_int_tables_number             1
loop_
  _symmetry_equiv_pos_as_xyz
         'x, y, z' 
loop_
  _atom_site_label
  _atom_site_occupancy
  _atom_site_fract_x
  _atom_site_fract_y
  _atom_site_fract_z
  _atom_site_thermal_displace_type
  _atom_site_B_iso_or_equiv
  _atom_site_type_symbol
  _atom_site_charge
         C1        1.0000    0.39610   0.11520   0.14113   Biso      1.000     C          -0.168197           
         C2        1.0000    0.59010   0.49070   0.01549   Biso      1.000     C          0.542748  
         C3        1.0000    0.80980   0.08130   0.77990   Biso      1.000     C          0.294398  
         C4        1.0000    0.44300   0.07640   0.91852   Biso      1.000     C          0.557221  
         C5        1.0000    0.73040   0.85220   0.80604   Biso      1.000     C          0.160733  
         C6        1.0000    0.60390   0.88480   0.85887   Biso      1.000     C          -0.168192           
         C7        1.0000    0.75620   0.70420   0.78400   Biso      1.000     C          0.622975  
         C8        1.0000    0.58610   0.02550   0.86817   Biso      1.000     C          0.214818  
         C9        1.0000    0.90990   0.00930   0.51549   Biso      1.000     C          0.542748  
         C10       1.0000    0.69020   0.41870   0.27990   Biso      1.000     C          0.294398  
         C11       1.0000    0.05700   0.42360   0.41852   Biso      1.000     C          0.557221  
         C12       1.0000    0.76960   0.64780   0.30604   Biso      1.000     C          0.160733  
         C13       1.0000    0.89610   0.61520   0.35887   Biso      1.000     C          -0.168192           
         C14       1.0000    0.74380   0.79580   0.28400   Biso      1.000     C          0.622975  
         C15       1.0000    0.91390   0.47450   0.36817   Biso      1.000     C          0.214818  
         C16       1.0000    0.10390   0.38480   0.64113   Biso      1.000     C          -0.168197           
         C17       1.0000    0.23040   0.35220   0.69396   Biso      1.000     C          0.160738  
         C18       1.0000    0.94300   0.57640   0.58148   Biso      1.000     C          0.55722   
         C19       1.0000    0.30980   0.58130   0.72010   Biso      1.000     C          0.294398  
         C20       1.0000    0.09010   0.99070   0.48451   Biso      1.000     C          0.542748  
         C21       1.0000    0.41390   0.97450   0.13183   Biso      1.000     C          0.214818  
         C22       1.0000    0.24380   0.29580   0.21600   Biso      1.000     C          0.622975  
         C23       1.0000    0.26960   0.14780   0.19396   Biso      1.000     C          0.160738  
         C24       1.0000    0.55700   0.92360   0.08148   Biso      1.000     C          0.557221  
         C25       1.0000    0.19020   0.91870   0.22010   Biso      1.000     C          0.294398  
         C26       1.0000    0.40990   0.50930   0.98451   Biso      1.000     C          0.542748  
         C27       1.0000    0.08610   0.52550   0.63183   Biso      1.000     C          0.214818  
         C28       1.0000    0.25620   0.20420   0.71600   Biso      1.000     C          0.622975  
         Gd1       1.0000    0.92145   0.13389   0.32692   Biso      1.000     Gd          1.898551  
         Gd2       1.0000    0.42145   0.63389   0.17308   Biso      1.000     Gd          1.898551  
         Gd3       1.0000    0.07855   0.86611   0.67308   Biso      1.000     Gd          1.89855   
         Gd4       1.0000    0.57855   0.36611   0.82692   Biso      1.000     Gd          1.89855   
         H1        1.0000    0.46860   0.18496   0.11209   Biso      1.000     H          0.169274  
         H2        1.0000    0.38263   0.65293   0.74853   Biso      1.000     H          0.074286  
         H3        1.0000    0.03140   0.31504   0.61209   Biso      1.000     H          0.169274  
         H4        1.0000    0.88263   0.15293   0.75147   Biso      1.000     H          0.074286  
         H5        1.0000    0.53140   0.81504   0.88791   Biso      1.000     H          0.169274  
         H6        1.0000    0.61737   0.34707   0.25147   Biso      1.000     H          0.074286  
         H7        1.0000    0.11737   0.84707   0.24853   Biso      1.000     H          0.074286  
         H8        1.0000    0.96860   0.68496   0.38791   Biso      1.000     H          0.169274  
         N1        1.0000    0.16390   0.05000   0.23310   Biso      1.000     N          -0.362287           
         N2        1.0000    0.31160   0.87700   0.17150   Biso      1.000     N          -0.396025           
         N3        1.0000    0.33610   0.45000   0.73310   Biso      1.000     N          -0.362287           
         N4        1.0000    0.18840   0.62300   0.67150   Biso      1.000     N          -0.396025           
         N5        1.0000    0.83610   0.95000   0.76690   Biso      1.000     N          -0.362286           
         N6        1.0000    0.68840   0.12300   0.82850   Biso      1.000     N          -0.396025           
         N7        1.0000    0.66390   0.55000   0.26690   Biso      1.000     N          -0.362286           
         N8        1.0000    0.81160   0.37700   0.32850   Biso      1.000     N          -0.396025           
         O1        1.0000    0.31200   0.55650   0.03583   Biso      1.000     O          -0.59172  
         O2        1.0000    0.35090   0.38950   0.18917   Biso      1.000     O          -0.635362           
         O3        1.0000    0.11920   0.31300   0.26100   Biso      1.000     O          -0.631294           
         O4        1.0000    0.54830   0.79420   0.07072   Biso      1.000     O          -0.630902           
         O5        1.0000    0.82810   0.48840   0.55714   Biso      1.000     O          -0.538207           
         O6        1.0000    0.12510   0.02360   0.40982   Biso      1.000     O          -0.581015           
         O7        1.0000    0.38080   0.18700   0.76100   Biso      1.000     O          -0.631294           
         O8        1.0000    0.18800   0.94350   0.53583   Biso      1.000     O          -0.59172  
         O9        1.0000    0.14910   0.11050   0.68917   Biso      1.000     O          -0.635363           
         O10       1.0000    0.95170   0.70580   0.57072   Biso      1.000     O          -0.630902           
         O11       1.0000    0.32810   0.98840   0.94286   Biso      1.000     O          -0.538207           
         O12       1.0000    0.81200   0.05650   0.46417   Biso      1.000     O          -0.591721           
         O13       1.0000    0.88080   0.68700   0.73900   Biso      1.000     O          -0.631294           
         O14       1.0000    0.68800   0.44350   0.96417   Biso      1.000     O          -0.591721           
         O15       1.0000    0.64910   0.61050   0.81083   Biso      1.000     O          -0.635363           
         O16       1.0000    0.45170   0.20580   0.92928   Biso      1.000     O          -0.630902           
         O17       1.0000    0.17190   0.51160   0.44286   Biso      1.000     O          -0.538207           
         O18       1.0000    0.87490   0.97640   0.59018   Biso      1.000     O          -0.581015           
         O19       1.0000    0.61920   0.81300   0.23900   Biso      1.000     O          -0.631294           
         O20       1.0000    0.85090   0.88950   0.31083   Biso      1.000     O          -0.635363           
         O21       1.0000    0.04830   0.29420   0.42928   Biso      1.000     O          -0.630902           
         O22       1.0000    0.37490   0.47640   0.90982   Biso      1.000     O          -0.581015           
         O23       1.0000    0.62510   0.52360   0.09018   Biso      1.000     O          -0.581015           
         O24       1.0000    0.67190   0.01160   0.05714   Biso      1.000     O          -0.538207 