
##########################################################################
#               Crystallographic Information Format file
#               Produced by PyCifRW module
#
#  This is a CIF file.  CIF has been adopted by the International
#  Union of Crystallography as the standard for data archiving and
#  transmission.
#
#  For information on this file format, follow the CIF links at
#  http://www.iucr.org
##########################################################################

data_image0

_cell_length_a                          7.981
_cell_length_b                          9.723
_cell_length_c                          15.909
_cell_angle_alpha                       90
_cell_angle_beta                        90
_cell_angle_gamma                       96.29
_symmetry_space_group_name_H-M          'P 1'
_symmetry_int_tables_number             1
loop_
  _symmetry_equiv_pos_as_xyz
         'x, y, z' 
loop_
  _atom_site_label
  _atom_site_occupancy
  _atom_site_fract_x
  _atom_site_fract_y
  _atom_site_fract_z
  _atom_site_thermal_displace_type
  _atom_site_B_iso_or_equiv
  _atom_site_type_symbol
  _atom_site_charge
         C1        1.0000    0.39610   0.11490   0.14080   Biso      1.000     C          -0.188279           
         C2        1.0000    0.58990   0.49030   0.01590   Biso      1.000     C          0.513918  
         C3        1.0000    0.81030   0.08050   0.78090   Biso      1.000     C          0.27013000000000004           
         C4        1.0000    0.44320   0.07570   0.91850   Biso      1.000     C          0.522334  
         C5        1.0000    0.73080   0.85180   0.80630   Biso      1.000     C          0.158256  
         C6        1.0000    0.60390   0.88510   0.85920   Biso      1.000     C          -0.188279           
         C7        1.0000    0.75620   0.70400   0.78440   Biso      1.000     C          0.577257  
         C8        1.0000    0.58590   0.02510   0.86830   Biso      1.000     C          0.17841600000000002           
         C9        1.0000    0.91010   0.00970   0.51590   Biso      1.000     C          0.513897  
         C10       1.0000    0.68970   0.41950   0.28090   Biso      1.000     C          0.270138  
         C11       1.0000    0.05680   0.42430   0.41850   Biso      1.000     C          0.522363  
         C12       1.0000    0.76920   0.64820   0.30630   Biso      1.000     C          0.15825899999999998           
         C13       1.0000    0.89610   0.61490   0.35920   Biso      1.000     C          -0.18828399999999998          
         C14       1.0000    0.74380   0.79600   0.28440   Biso      1.000     C          0.577256  
         C15       1.0000    0.91410   0.47490   0.36830   Biso      1.000     C          0.178419  
         C16       1.0000    0.10390   0.38510   0.64080   Biso      1.000     C          -0.18828699999999998          
         C17       1.0000    0.23080   0.35180   0.69370   Biso      1.000     C          0.15825899999999998           
         C18       1.0000    0.94320   0.57570   0.58150   Biso      1.000     C          0.522358  
         C19       1.0000    0.31030   0.58050   0.71910   Biso      1.000     C          0.270135  
         C20       1.0000    0.08990   0.99030   0.48410   Biso      1.000     C          0.513891  
         C21       1.0000    0.41410   0.97490   0.13170   Biso      1.000     C          0.178418  
         C22       1.0000    0.24380   0.29600   0.21560   Biso      1.000     C          0.577257  
         C23       1.0000    0.26920   0.14820   0.19370   Biso      1.000     C          0.15825999999999998           
         C24       1.0000    0.55680   0.92430   0.08150   Biso      1.000     C          0.522339  
         C25       1.0000    0.18970   0.91950   0.21910   Biso      1.000     C          0.270135  
         C26       1.0000    0.41010   0.50970   0.98410   Biso      1.000     C          0.513925  
         C27       1.0000    0.08590   0.52510   0.63170   Biso      1.000     C          0.178419  
         C28       1.0000    0.25620   0.20400   0.71560   Biso      1.000     C          0.5772609999999999  
         Eu1       1.0000    0.92130   0.13446   0.32677   Biso      1.000     Eu          1.260846  
         Eu2       1.0000    0.42130   0.63446   0.17323   Biso      1.000     Eu          1.260845  
         Eu3       1.0000    0.07870   0.86554   0.67323   Biso      1.000     Eu          1.260848  
         Eu4       1.0000    0.57870   0.36554   0.82677   Biso      1.000     Eu          1.2608409999999999  
         H1        1.0000    0.46860   0.18496   0.11209   Biso      1.000     H          0.157405  
         H2        1.0000    0.38263   0.65293   0.74853   Biso      1.000     H          0.07796900000000001           
         H3        1.0000    0.03140   0.31504   0.61209   Biso      1.000     H          0.157402  
         H4        1.0000    0.88263   0.15293   0.75147   Biso      1.000     H          0.07797   
         H5        1.0000    0.53140   0.81504   0.88791   Biso      1.000     H          0.157406  
         H6        1.0000    0.61737   0.34707   0.25147   Biso      1.000     H          0.07796900000000001           
         H7        1.0000    0.11737   0.84707   0.24853   Biso      1.000     H          0.07796900000000001           
         H8        1.0000    0.96860   0.68496   0.38791   Biso      1.000     H          0.15740099999999999           
         N1        1.0000    0.16420   0.05080   0.23226   Biso      1.000     N          -0.30180799999999997          
         N2        1.0000    0.31180   0.87790   0.17081   Biso      1.000     N          -0.321815           
         N3        1.0000    0.33580   0.44920   0.73226   Biso      1.000     N          -0.301807           
         N4        1.0000    0.18820   0.62210   0.67081   Biso      1.000     N          -0.321818           
         N5        1.0000    0.83580   0.94920   0.76774   Biso      1.000     N          -0.301806           
         N6        1.0000    0.68820   0.12210   0.82919   Biso      1.000     N          -0.321813           
         N7        1.0000    0.66420   0.55080   0.26774   Biso      1.000     N          -0.301807           
         N8        1.0000    0.81180   0.37790   0.32919   Biso      1.000     N          -0.32182  
         O1        1.0000    0.31230   0.55680   0.03575   Biso      1.000     O          -0.43637  
         O2        1.0000    0.35160   0.38920   0.18944   Biso      1.000     O          -0.579334           
         O3        1.0000    0.11920   0.31330   0.26034   Biso      1.000     O          -0.565459           
         O4        1.0000    0.54960   0.79500   0.07118   Biso      1.000     O          -0.513436           
         O5        1.0000    0.82820   0.48720   0.55709   Biso      1.000     O          -0.37968  
         O6        1.0000    0.12500   0.02360   0.41019   Biso      1.000     O          -0.43037600000000004          
         O7        1.0000    0.38080   0.18670   0.76034   Biso      1.000     O          -0.565462           
         O8        1.0000    0.18770   0.94320   0.53575   Biso      1.000     O          -0.43635799999999997          
         O9        1.0000    0.14840   0.11080   0.68944   Biso      1.000     O          -0.579321           
         O10       1.0000    0.95040   0.70500   0.57118   Biso      1.000     O          -0.5134340000000001           
         O11       1.0000    0.32820   0.98720   0.94291   Biso      1.000     O          -0.37966300000000003          
         O12       1.0000    0.81230   0.05680   0.46425   Biso      1.000     O          -0.436359           
         O13       1.0000    0.88080   0.68670   0.73966   Biso      1.000     O          -0.5654560000000001           
         O14       1.0000    0.68770   0.44320   0.96425   Biso      1.000     O          -0.43636400000000003          
         O15       1.0000    0.64840   0.61080   0.81056   Biso      1.000     O          -0.579332           
         O16       1.0000    0.45040   0.20500   0.92882   Biso      1.000     O          -0.513439           
         O17       1.0000    0.17180   0.51280   0.44291   Biso      1.000     O          -0.379693           
         O18       1.0000    0.87500   0.97640   0.58981   Biso      1.000     O          -0.430381           
         O19       1.0000    0.61920   0.81330   0.23966   Biso      1.000     O          -0.565459           
         O20       1.0000    0.85160   0.88920   0.31056   Biso      1.000     O          -0.579314           
         O21       1.0000    0.04960   0.29500   0.42882   Biso      1.000     O          -0.5134270000000001           
         O22       1.0000    0.37500   0.47640   0.91019   Biso      1.000     O          -0.43037299999999995          
         O23       1.0000    0.62500   0.52360   0.08981   Biso      1.000     O          -0.430375           
         O24       1.0000    0.67180   0.01280   0.05709   Biso      1.000     O          -0.379677 