
##########################################################################
#               Crystallographic Information Format file
#               Produced by PyCifRW module
#
#  This is a CIF file.  CIF has been adopted by the International
#  Union of Crystallography as the standard for data archiving and
#  transmission.
#
#  For information on this file format, follow the CIF links at
#  http://www.iucr.org
##########################################################################

data_image0

_cell_length_a                          7.9809
_cell_length_b                          9.7465
_cell_length_c                          15.9265
_cell_angle_alpha                       90
_cell_angle_beta                        90
_cell_angle_gamma                       96.2159
_symmetry_space_group_name_H-M          'P 1'
_symmetry_int_tables_number             1
loop_
  _symmetry_equiv_pos_as_xyz
         'x, y, z' 
loop_
  _atom_site_label
  _atom_site_occupancy
  _atom_site_fract_x
  _atom_site_fract_y
  _atom_site_fract_z
  _atom_site_thermal_displace_type
  _atom_site_B_iso_or_equiv
  _atom_site_type_symbol
  _atom_site_charge
         C1        1.0000    0.39510   0.11560   0.14090   Biso      1.000     C          -0.170329           
         C2        1.0000    0.73170   0.85120   0.80680   Biso      1.000     C          0.16764500000000002           
         C3        1.0000    0.44330   0.07470   0.91830   Biso      1.000     C          0.552895  
         C4        1.0000    0.81110   0.07950   0.78120   Biso      1.000     C          0.295505  
         C5        1.0000    0.58940   0.49080   0.01590   Biso      1.000     C          0.542614  
         C6        1.0000    0.08650   0.52370   0.63170   Biso      1.000     C          0.217596  
         C7        1.0000    0.25730   0.20370   0.71490   Biso      1.000     C          0.622019  
         C8        1.0000    0.23170   0.35120   0.69320   Biso      1.000     C          0.16764500000000002           
         C9        1.0000    0.60490   0.88440   0.85910   Biso      1.000     C          -0.170324           
         C10       1.0000    0.94330   0.57470   0.58170   Biso      1.000     C          0.552895  
         C11       1.0000    0.08940   0.99080   0.48410   Biso      1.000     C          0.542614  
         C12       1.0000    0.41350   0.97630   0.13170   Biso      1.000     C          0.21759699999999998           
         C13       1.0000    0.24270   0.29630   0.21490   Biso      1.000     C          0.6220180000000001  
         C14       1.0000    0.26830   0.14880   0.19320   Biso      1.000     C          0.167649  
         C15       1.0000    0.55670   0.92530   0.08170   Biso      1.000     C          0.552895  
         C16       1.0000    0.18890   0.92050   0.21880   Biso      1.000     C          0.295505  
         C17       1.0000    0.41060   0.50920   0.98410   Biso      1.000     C          0.542614  
         C18       1.0000    0.31110   0.57950   0.71880   Biso      1.000     C          0.295505  
         C19       1.0000    0.75730   0.70370   0.78510   Biso      1.000     C          0.6220180000000001  
         C20       1.0000    0.10490   0.38440   0.64090   Biso      1.000     C          -0.170324           
         C21       1.0000    0.91060   0.00920   0.51590   Biso      1.000     C          0.542614  
         C22       1.0000    0.68890   0.42050   0.28120   Biso      1.000     C          0.295505  
         C23       1.0000    0.05670   0.42530   0.41830   Biso      1.000     C          0.552894  
         C24       1.0000    0.76830   0.64880   0.30680   Biso      1.000     C          0.16764500000000002           
         C25       1.0000    0.89510   0.61560   0.35910   Biso      1.000     C          -0.170324           
         C26       1.0000    0.74270   0.79630   0.28510   Biso      1.000     C          0.6220180000000001  
         C27       1.0000    0.91350   0.47630   0.36830   Biso      1.000     C          0.217596  
         C28       1.0000    0.58650   0.02370   0.86830   Biso      1.000     C          0.217596  
         H1        1.0000    0.96860   0.68496   0.38791   Biso      1.000     H          0.168408  
         H2        1.0000    0.53140   0.81504   0.88791   Biso      1.000     H          0.168408  
         H3        1.0000    0.88263   0.15293   0.75147   Biso      1.000     H          0.074213  
         H4        1.0000    0.61737   0.34707   0.25147   Biso      1.000     H          0.074213  
         H5        1.0000    0.38263   0.65293   0.74853   Biso      1.000     H          0.074213  
         H6        1.0000    0.46860   0.18496   0.11209   Biso      1.000     H          0.168408  
         H7        1.0000    0.11737   0.84707   0.24853   Biso      1.000     H          0.074213  
         H8        1.0000    0.03140   0.31504   0.61209   Biso      1.000     H          0.168408  
         N1        1.0000    0.31050   0.87900   0.17060   Biso      1.000     N          -0.40613499999999997          
         N2        1.0000    0.33750   0.44850   0.73160   Biso      1.000     N          -0.372221           
         N3        1.0000    0.18950   0.62100   0.67060   Biso      1.000     N          -0.40613499999999997          
         N4        1.0000    0.83750   0.94850   0.76840   Biso      1.000     N          -0.372221           
         N5        1.0000    0.68950   0.12100   0.82940   Biso      1.000     N          -0.40613499999999997          
         N6        1.0000    0.81050   0.37900   0.32940   Biso      1.000     N          -0.40613499999999997          
         N7        1.0000    0.16250   0.05150   0.23160   Biso      1.000     N          -0.372221           
         N8        1.0000    0.66250   0.55150   0.26840   Biso      1.000     N          -0.372221           
         O1        1.0000    0.18780   0.94350   0.53553   Biso      1.000     O          -0.601333           
         O2        1.0000    0.15000   0.11110   0.68864   Biso      1.000     O          -0.63956  
         O3        1.0000    0.32890   0.98720   0.94246   Biso      1.000     O          -0.537459           
         O4        1.0000    0.95090   0.70360   0.57145   Biso      1.000     O          -0.6318090000000001           
         O5        1.0000    0.38240   0.18660   0.75943   Biso      1.000     O          -0.6396689999999999           
         O6        1.0000    0.31220   0.55650   0.03553   Biso      1.000     O          -0.601333           
         O7        1.0000    0.82890   0.48720   0.55754   Biso      1.000     O          -0.537459           
         O8        1.0000    0.11760   0.31340   0.25943   Biso      1.000     O          -0.6396689999999999           
         O9        1.0000    0.35000   0.38890   0.18864   Biso      1.000     O          -0.639559           
         O10       1.0000    0.54910   0.79640   0.07145   Biso      1.000     O          -0.6318090000000001           
         O11       1.0000    0.62480   0.52470   0.09008   Biso      1.000     O          -0.578629           
         O12       1.0000    0.12480   0.02470   0.40992   Biso      1.000     O          -0.578629           
         O13       1.0000    0.88240   0.68660   0.74057   Biso      1.000     O          -0.639668           
         O14       1.0000    0.67110   0.01280   0.05754   Biso      1.000     O          -0.537459           
         O15       1.0000    0.65000   0.61110   0.81136   Biso      1.000     O          -0.639559           
         O16       1.0000    0.45090   0.20360   0.92855   Biso      1.000     O          -0.6318090000000001           
         O17       1.0000    0.17110   0.51280   0.44246   Biso      1.000     O          -0.537459           
         O18       1.0000    0.87520   0.97530   0.59008   Biso      1.000     O          -0.578629           
         O19       1.0000    0.61760   0.81340   0.24057   Biso      1.000     O          -0.6396689999999999           
         O20       1.0000    0.81220   0.05650   0.46447   Biso      1.000     O          -0.601333           
         O21       1.0000    0.85000   0.88890   0.31136   Biso      1.000     O          -0.639559           
         O22       1.0000    0.04910   0.29640   0.42855   Biso      1.000     O          -0.6318090000000001           
         O23       1.0000    0.37520   0.47530   0.90992   Biso      1.000     O          -0.578629           
         O24       1.0000    0.68780   0.44350   0.96447   Biso      1.000     O          -0.601333           
         Sm1       1.0000    0.41981   0.63510   0.17327   Biso      1.000     Sm          1.9362439999999999  
         Sm2       1.0000    0.08019   0.86490   0.67327   Biso      1.000     Sm          1.9362439999999999  
         Sm3       1.0000    0.58019   0.36490   0.82673   Biso      1.000     Sm          1.9362439999999999  
         Sm4       1.0000    0.91981   0.13510   0.32673   Biso      1.000     Sm          1.9362439999999999 