
##########################################################################
#               Crystallographic Information Format file
#               Produced by PyCifRW module
#
#  This is a CIF file.  CIF has been adopted by the International
#  Union of Crystallography as the standard for data archiving and
#  transmission.
#
#  For information on this file format, follow the CIF links at
#  http://www.iucr.org
##########################################################################

data_image0

_cell_length_a                          7.959
_cell_length_b                          9.664
_cell_length_c                          15.844
_cell_angle_alpha                       90
_cell_angle_beta                        90
_cell_angle_gamma                       96.489
_symmetry_space_group_name_H-M          'P 1'
_symmetry_int_tables_number             1
loop_
  _symmetry_equiv_pos_as_xyz
         'x, y, z' 
loop_
  _atom_site_label
  _atom_site_occupancy
  _atom_site_fract_x
  _atom_site_fract_y
  _atom_site_fract_z
  _atom_site_thermal_displace_type
  _atom_site_B_iso_or_equiv
  _atom_site_type_symbol
  _atom_site_charge
         C1        1.0000    0.39670   0.11440   0.14137   Biso      1.000     C          -0.165549           
         C2        1.0000    0.72960   0.85270   0.80561   Biso      1.000     C          0.160646  
         C3        1.0000    0.44160   0.07710   0.91857   Biso      1.000     C          0.559195  
         C4        1.0000    0.80840   0.08230   0.77944   Biso      1.000     C          0.29659   
         C5        1.0000    0.59030   0.49040   0.01526   Biso      1.000     C          0.544984  
         C6        1.0000    0.08500   0.52640   0.63222   Biso      1.000     C          0.213577  
         C7        1.0000    0.25500   0.20410   0.71622   Biso      1.000     C          0.626638  
         C8        1.0000    0.22960   0.35270   0.69439   Biso      1.000     C          0.160646  
         C9        1.0000    0.60330   0.88560   0.85863   Biso      1.000     C          -0.165545           
         C10       1.0000    0.94160   0.57710   0.58143   Biso      1.000     C          0.559195  
         C11       1.0000    0.09030   0.99040   0.48474   Biso      1.000     C          0.544984  
         C12       1.0000    0.41500   0.97360   0.13222   Biso      1.000     C          0.21357800000000002           
         C13       1.0000    0.24500   0.29590   0.21622   Biso      1.000     C          0.626637  
         C14       1.0000    0.27040   0.14730   0.19439   Biso      1.000     C          0.16065   
         C15       1.0000    0.55840   0.92290   0.08143   Biso      1.000     C          0.559195  
         C16       1.0000    0.19160   0.91770   0.22056   Biso      1.000     C          0.29659   
         C17       1.0000    0.40970   0.50960   0.98474   Biso      1.000     C          0.544984  
         C18       1.0000    0.30840   0.58230   0.72056   Biso      1.000     C          0.29659   
         C19       1.0000    0.75500   0.70410   0.78378   Biso      1.000     C          0.626638  
         C20       1.0000    0.10330   0.38560   0.64137   Biso      1.000     C          -0.165544           
         C21       1.0000    0.90970   0.00960   0.51526   Biso      1.000     C          0.544984  
         C22       1.0000    0.69160   0.41770   0.27944   Biso      1.000     C          0.29659   
         C23       1.0000    0.05840   0.42290   0.41857   Biso      1.000     C          0.559195  
         C24       1.0000    0.77040   0.64730   0.30561   Biso      1.000     C          0.160646  
         C25       1.0000    0.89670   0.61440   0.35863   Biso      1.000     C          -0.165545           
         C26       1.0000    0.74500   0.79590   0.28378   Biso      1.000     C          0.626638  
         C27       1.0000    0.91500   0.47360   0.36778   Biso      1.000     C          0.21357800000000002           
         C28       1.0000    0.58500   0.02640   0.86778   Biso      1.000     C          0.21357800000000002           
         H1        1.0000    0.96860   0.68496   0.38791   Biso      1.000     H          0.168605  
         H2        1.0000    0.53140   0.81504   0.88791   Biso      1.000     H          0.168606  
         H3        1.0000    0.88263   0.15293   0.75147   Biso      1.000     H          0.072989  
         H4        1.0000    0.61737   0.34707   0.25147   Biso      1.000     H          0.072989  
         H5        1.0000    0.38263   0.65293   0.74853   Biso      1.000     H          0.072989  
         H6        1.0000    0.46860   0.18496   0.11209   Biso      1.000     H          0.168606  
         H7        1.0000    0.11737   0.84707   0.24853   Biso      1.000     H          0.072989  
         H8        1.0000    0.03140   0.31504   0.61209   Biso      1.000     H          0.168605  
         N1        1.0000    0.31310   0.87570   0.17181   Biso      1.000     N          -0.40216399999999997          
         N2        1.0000    0.33470   0.45090   0.73339   Biso      1.000     N          -0.36482  
         N3        1.0000    0.18690   0.62430   0.67181   Biso      1.000     N          -0.40216399999999997          
         N4        1.0000    0.83470   0.95090   0.76661   Biso      1.000     N          -0.36482  
         N5        1.0000    0.68690   0.12430   0.82819   Biso      1.000     N          -0.40216399999999997          
         N6        1.0000    0.81310   0.37570   0.32819   Biso      1.000     N          -0.40216399999999997          
         N7        1.0000    0.16530   0.04910   0.23339   Biso      1.000     N          -0.36482  
         N8        1.0000    0.66530   0.54910   0.26661   Biso      1.000     N          -0.36482  
         O1        1.0000    0.18750   0.94310   0.53632   Biso      1.000     O          -0.596216           
         O2        1.0000    0.14820   0.11009   0.68929   Biso      1.000     O          -0.6405029999999999           
         O3        1.0000    0.32730   0.98860   0.94318   Biso      1.000     O          -0.537578           
         O4        1.0000    0.95010   0.70713   0.57081   Biso      1.000     O          -0.6356689999999999           
         O5        1.0000    0.38020   0.18740   0.76121   Biso      1.000     O          -0.639392           
         O6        1.0000    0.31250   0.55690   0.03632   Biso      1.000     O          -0.596216           
         O7        1.0000    0.82730   0.48860   0.55682   Biso      1.000     O          -0.537578           
         O8        1.0000    0.11980   0.31260   0.26121   Biso      1.000     O          -0.639392           
         O9        1.0000    0.35180   0.38991   0.18929   Biso      1.000     O          -0.6405029999999999           
         O10       1.0000    0.54990   0.79287   0.07081   Biso      1.000     O          -0.6356689999999999           
         O11       1.0000    0.62550   0.52308   0.09035   Biso      1.000     O          -0.586274           
         O12       1.0000    0.12550   0.02308   0.40965   Biso      1.000     O          -0.586274           
         O13       1.0000    0.88020   0.68740   0.73879   Biso      1.000     O          -0.639392           
         O14       1.0000    0.67270   0.01140   0.05682   Biso      1.000     O          -0.537578           
         O15       1.0000    0.64820   0.61009   0.81071   Biso      1.000     O          -0.6405029999999999           
         O16       1.0000    0.45010   0.20713   0.92919   Biso      1.000     O          -0.6356689999999999           
         O17       1.0000    0.17270   0.51140   0.44318   Biso      1.000     O          -0.537578           
         O18       1.0000    0.87450   0.97692   0.59035   Biso      1.000     O          -0.586274           
         O19       1.0000    0.61980   0.81260   0.23879   Biso      1.000     O          -0.639393           
         O20       1.0000    0.81250   0.05690   0.46368   Biso      1.000     O          -0.596216           
         O21       1.0000    0.85180   0.88991   0.31071   Biso      1.000     O          -0.6405029999999999           
         O22       1.0000    0.04990   0.29287   0.42919   Biso      1.000     O          -0.6356689999999999           
         O23       1.0000    0.37450   0.47692   0.90965   Biso      1.000     O          -0.586274           
         O24       1.0000    0.68750   0.44310   0.96368   Biso      1.000     O          -0.596216           
         Tb1       1.0000    0.42294   0.63332   0.17293   Biso      1.000     Tb          1.9249349999999998  
         Tb2       1.0000    0.07706   0.86668   0.67293   Biso      1.000     Tb          1.9249349999999998  
         Tb3       1.0000    0.57706   0.36668   0.82707   Biso      1.000     Tb          1.924936  
         Tb4       1.0000    0.92294   0.13332   0.32707   Biso      1.000     Tb          1.924936 