
##########################################################################
#               Crystallographic Information Format file
#               Produced by PyCifRW module
#
#  This is a CIF file.  CIF has been adopted by the International
#  Union of Crystallography as the standard for data archiving and
#  transmission.
#
#  For information on this file format, follow the CIF links at
#  http://www.iucr.org
##########################################################################

data_image0

_cell_length_a                          7.923
_cell_length_b                          9.5926
_cell_length_c                          15.7938
_cell_angle_alpha                       90
_cell_angle_beta                        90
_cell_angle_gamma                       96.759
_symmetry_space_group_name_H-M          'P 1'
_symmetry_int_tables_number             1
loop_
  _symmetry_equiv_pos_as_xyz
         'x, y, z' 
loop_
  _atom_site_label
  _atom_site_occupancy
  _atom_site_fract_x
  _atom_site_fract_y
  _atom_site_fract_z
  _atom_site_thermal_displace_type
  _atom_site_B_iso_or_equiv
  _atom_site_type_symbol
  _atom_site_charge
         C1        1.0000    0.39990   0.11420   0.14090   Biso      1.000     C          -0.16829  
         C2        1.0000    0.59120   0.49010   0.01490   Biso      1.000     C          0.550267  
         C3        1.0000    0.80300   0.08500   0.77740   Biso      1.000     C          0.298263  
         C4        1.0000    0.43990   0.07800   0.91930   Biso      1.000     C          0.55534   
         C5        1.0000    0.72560   0.85310   0.80490   Biso      1.000     C          0.16333   
         C6        1.0000    0.60010   0.88580   0.85910   Biso      1.000     C          -0.168285           
         C7        1.0000    0.75060   0.70370   0.78260   Biso      1.000     C          0.628329  
         C8        1.0000    0.58130   0.02740   0.86780   Biso      1.000     C          0.218984  
         C9        1.0000    0.90880   0.00990   0.51490   Biso      1.000     C          0.550268  
         C10       1.0000    0.69700   0.41500   0.27740   Biso      1.000     C          0.298263  
         C11       1.0000    0.06010   0.42200   0.41930   Biso      1.000     C          0.555339  
         C12       1.0000    0.77440   0.64690   0.30490   Biso      1.000     C          0.163329  
         C13       1.0000    0.89990   0.61420   0.35910   Biso      1.000     C          -0.168284           
         C14       1.0000    0.74940   0.79630   0.28260   Biso      1.000     C          0.628329  
         C15       1.0000    0.91870   0.47260   0.36780   Biso      1.000     C          0.218983  
         C16       1.0000    0.10010   0.38580   0.64090   Biso      1.000     C          -0.168291           
         C17       1.0000    0.22560   0.35310   0.69510   Biso      1.000     C          0.163333  
         C18       1.0000    0.93990   0.57800   0.58070   Biso      1.000     C          0.555339  
         C19       1.0000    0.30300   0.58500   0.72260   Biso      1.000     C          0.298263  
         C20       1.0000    0.09120   0.99010   0.48510   Biso      1.000     C          0.550267  
         C21       1.0000    0.41870   0.97260   0.13220   Biso      1.000     C          0.218985  
         C22       1.0000    0.24940   0.29630   0.21740   Biso      1.000     C          0.62833   
         C23       1.0000    0.27440   0.14690   0.19510   Biso      1.000     C          0.163333  
         C24       1.0000    0.56010   0.92200   0.08070   Biso      1.000     C          0.555339  
         C25       1.0000    0.19700   0.91500   0.22260   Biso      1.000     C          0.298263  
         C26       1.0000    0.40880   0.50990   0.98510   Biso      1.000     C          0.550266  
         C27       1.0000    0.08130   0.52740   0.63220   Biso      1.000     C          0.218985  
         C28       1.0000    0.25060   0.20370   0.71740   Biso      1.000     C          0.628331  
         Er1       1.0000    0.92817   0.13278   0.32740   Biso      1.000     Er          1.926739  
         Er2       1.0000    0.42817   0.63278   0.17260   Biso      1.000     Er          1.926736  
         Er3       1.0000    0.07183   0.86722   0.67260   Biso      1.000     Er          1.926737  
         Er4       1.0000    0.57183   0.36722   0.82740   Biso      1.000     Er          1.926737  
         H1        1.0000    0.46860   0.18496   0.11209   Biso      1.000     H          0.169757  
         H2        1.0000    0.38263   0.65293   0.74853   Biso      1.000     H          0.074405  
         H3        1.0000    0.03140   0.31504   0.61209   Biso      1.000     H          0.169758  
         H4        1.0000    0.88263   0.15293   0.75147   Biso      1.000     H          0.074406  
         H5        1.0000    0.53140   0.81504   0.88791   Biso      1.000     H          0.169757  
         H6        1.0000    0.61737   0.34707   0.25147   Biso      1.000     H          0.074406  
         H7        1.0000    0.11737   0.84707   0.24853   Biso      1.000     H          0.074405  
         H8        1.0000    0.96860   0.68496   0.38791   Biso      1.000     H          0.169757  
         N1        1.0000    0.16960   0.04790   0.23550   Biso      1.000     N          -0.369835           
         N2        1.0000    0.31730   0.87360   0.17330   Biso      1.000     N          -0.403627           
         N3        1.0000    0.33040   0.45210   0.73550   Biso      1.000     N          -0.369834           
         N4        1.0000    0.18270   0.62640   0.67330   Biso      1.000     N          -0.403627           
         N5        1.0000    0.83040   0.95210   0.76450   Biso      1.000     N          -0.369835           
         N6        1.0000    0.68270   0.12640   0.82670   Biso      1.000     N          -0.403627           
         N7        1.0000    0.66960   0.54790   0.26450   Biso      1.000     N          -0.369835           
         N8        1.0000    0.81730   0.37360   0.32670   Biso      1.000     N          -0.403627           
         O1        1.0000    0.31330   0.55650   0.03770   Biso      1.000     O          -0.600947           
         O2        1.0000    0.35510   0.39120   0.18960   Biso      1.000     O          -0.637873           
         O3        1.0000    0.12420   0.31280   0.26330   Biso      1.000     O          -0.643526           
         O4        1.0000    0.55270   0.79010   0.07050   Biso      1.000     O          -0.639253           
         O5        1.0000    0.82470   0.48920   0.55550   Biso      1.000     O          -0.531522           
         O6        1.0000    0.12780   0.02240   0.40990   Biso      1.000     O          -0.590545           
         O7        1.0000    0.37580   0.18720   0.76330   Biso      1.000     O          -0.643527           
         O8        1.0000    0.18670   0.94350   0.53770   Biso      1.000     O          -0.600947           
         O9        1.0000    0.14490   0.10880   0.68960   Biso      1.000     O          -0.637873           
         O10       1.0000    0.94730   0.70990   0.57050   Biso      1.000     O          -0.639253           
         O11       1.0000    0.32470   0.98920   0.94450   Biso      1.000     O          -0.531521           
         O12       1.0000    0.81330   0.05650   0.46230   Biso      1.000     O          -0.600947           
         O13       1.0000    0.87580   0.68720   0.73670   Biso      1.000     O          -0.643526           
         O14       1.0000    0.68670   0.44350   0.96230   Biso      1.000     O          -0.600947           
         O15       1.0000    0.64490   0.60880   0.81040   Biso      1.000     O          -0.637871           
         O16       1.0000    0.44730   0.20990   0.92950   Biso      1.000     O          -0.639253           
         O17       1.0000    0.17530   0.51080   0.44450   Biso      1.000     O          -0.531522           
         O18       1.0000    0.87220   0.97760   0.59010   Biso      1.000     O          -0.590545           
         O19       1.0000    0.62420   0.81280   0.23670   Biso      1.000     O          -0.643526           
         O20       1.0000    0.85510   0.89120   0.31040   Biso      1.000     O          -0.637872           
         O21       1.0000    0.05270   0.29010   0.42950   Biso      1.000     O          -0.639254           
         O22       1.0000    0.37220   0.47760   0.90990   Biso      1.000     O          -0.590546           
         O23       1.0000    0.62780   0.52240   0.09010   Biso      1.000     O          -0.590545           
         O24       1.0000    0.67530   0.01080   0.05550   Biso      1.000     O          -0.531522 