
##########################################################################
#               Crystallographic Information Format file
#               Produced by PyCifRW module
#
#  This is a CIF file.  CIF has been adopted by the International
#  Union of Crystallography as the standard for data archiving and
#  transmission.
#
#  For information on this file format, follow the CIF links at
#  http://www.iucr.org
##########################################################################

data_image0

_cell_length_a                          7.955
_cell_length_b                          9.65
_cell_length_c                          15.845
_cell_angle_alpha                       90
_cell_angle_beta                        90
_cell_angle_gamma                       96.555
_symmetry_space_group_name_H-M          'P 1'
_symmetry_int_tables_number             1
loop_
  _symmetry_equiv_pos_as_xyz
         'x, y, z' 
loop_
  _atom_site_label
  _atom_site_occupancy
  _atom_site_fract_x
  _atom_site_fract_y
  _atom_site_fract_z
  _atom_site_thermal_displace_type
  _atom_site_B_iso_or_equiv
  _atom_site_type_symbol
  _atom_site_charge
         C1        1.0000    0.39770   0.11420   0.14110   Biso      1.000     C          -0.165256           
         C2        1.0000    0.58980   0.49040   0.01510   Biso      1.000     C          0.5457890000000001  
         C3        1.0000    0.80740   0.08320   0.77900   Biso      1.000     C          0.298477  
         C4        1.0000    0.44160   0.07690   0.91880   Biso      1.000     C          0.5532020000000001  
         C5        1.0000    0.72820   0.85300   0.80540   Biso      1.000     C          0.16134400000000002           
         C6        1.0000    0.60230   0.88580   0.85890   Biso      1.000     C          -0.16525399999999998          
         C7        1.0000    0.75390   0.70480   0.78340   Biso      1.000     C          0.627793  
         C8        1.0000    0.58390   0.02670   0.86810   Biso      1.000     C          0.217029  
         C9        1.0000    0.91020   0.00960   0.51510   Biso      1.000     C          0.5457890000000001  
         C10       1.0000    0.69260   0.41680   0.27900   Biso      1.000     C          0.298477  
         C11       1.0000    0.05840   0.42310   0.41880   Biso      1.000     C          0.5532020000000001  
         C12       1.0000    0.77180   0.64700   0.30540   Biso      1.000     C          0.16134400000000002           
         C13       1.0000    0.89770   0.61420   0.35890   Biso      1.000     C          -0.16525399999999998          
         C14       1.0000    0.74610   0.79520   0.28340   Biso      1.000     C          0.627793  
         C15       1.0000    0.91610   0.47330   0.36810   Biso      1.000     C          0.217029  
         C16       1.0000    0.10230   0.38580   0.64110   Biso      1.000     C          -0.165256           
         C17       1.0000    0.22820   0.35300   0.69460   Biso      1.000     C          0.16134600000000002           
         C18       1.0000    0.94160   0.57690   0.58120   Biso      1.000     C          0.5532020000000001  
         C19       1.0000    0.30740   0.58320   0.72100   Biso      1.000     C          0.298477  
         C20       1.0000    0.08980   0.99040   0.48490   Biso      1.000     C          0.5457890000000001  
         C21       1.0000    0.41610   0.97330   0.13190   Biso      1.000     C          0.217029  
         C22       1.0000    0.24610   0.29520   0.21660   Biso      1.000     C          0.627793  
         C23       1.0000    0.27180   0.14700   0.19460   Biso      1.000     C          0.16134600000000002           
         C24       1.0000    0.55840   0.92310   0.08120   Biso      1.000     C          0.5532020000000001  
         C25       1.0000    0.19260   0.91680   0.22100   Biso      1.000     C          0.298477  
         C26       1.0000    0.41020   0.50960   0.98490   Biso      1.000     C          0.5457890000000001  
         C27       1.0000    0.08390   0.52670   0.63190   Biso      1.000     C          0.217029  
         C28       1.0000    0.25390   0.20480   0.71660   Biso      1.000     C          0.627793  
         Dy1       1.0000    0.92438   0.13310   0.32710   Biso      1.000     Dy          1.925223  
         Dy2       1.0000    0.42438   0.63310   0.17290   Biso      1.000     Dy          1.925223  
         Dy3       1.0000    0.07562   0.86690   0.67290   Biso      1.000     Dy          1.925223  
         Dy4       1.0000    0.57562   0.36690   0.82710   Biso      1.000     Dy          1.925223  
         H1        1.0000    0.46860   0.18496   0.11209   Biso      1.000     H          0.16902   
         H2        1.0000    0.38263   0.65293   0.74853   Biso      1.000     H          0.073975  
         H3        1.0000    0.03140   0.31504   0.61209   Biso      1.000     H          0.16902   
         H4        1.0000    0.88263   0.15293   0.75147   Biso      1.000     H          0.073975  
         H5        1.0000    0.53140   0.81504   0.88791   Biso      1.000     H          0.169019  
         H6        1.0000    0.61737   0.34707   0.25147   Biso      1.000     H          0.073975  
         H7        1.0000    0.11737   0.84707   0.24853   Biso      1.000     H          0.073975  
         H8        1.0000    0.96860   0.68496   0.38791   Biso      1.000     H          0.169019  
         N1        1.0000    0.16650   0.04830   0.23410   Biso      1.000     N          -0.36735999999999996          
         N2        1.0000    0.31380   0.87500   0.17220   Biso      1.000     N          -0.402525           
         N3        1.0000    0.33350   0.45170   0.73410   Biso      1.000     N          -0.367361           
         N4        1.0000    0.18620   0.62500   0.67220   Biso      1.000     N          -0.402525           
         N5        1.0000    0.83350   0.95170   0.76590   Biso      1.000     N          -0.36735999999999996          
         N6        1.0000    0.68620   0.12500   0.82780   Biso      1.000     N          -0.402525           
         N7        1.0000    0.66650   0.54830   0.26590   Biso      1.000     N          -0.36735999999999996          
         N8        1.0000    0.81380   0.37500   0.32780   Biso      1.000     N          -0.402525           
         O1        1.0000    0.31260   0.55670   0.03690   Biso      1.000     O          -0.598195           
         O2        1.0000    0.35270   0.39040   0.18950   Biso      1.000     O          -0.642576           
         O3        1.0000    0.12070   0.31240   0.26170   Biso      1.000     O          -0.640686           
         O4        1.0000    0.55050   0.79180   0.07060   Biso      1.000     O          -0.6387430000000001           
         O5        1.0000    0.82660   0.48920   0.55650   Biso      1.000     O          -0.530223           
         O6        1.0000    0.12610   0.02290   0.40960   Biso      1.000     O          -0.586291           
         O7        1.0000    0.37930   0.18760   0.76170   Biso      1.000     O          -0.640686           
         O8        1.0000    0.18740   0.94330   0.53690   Biso      1.000     O          -0.598194           
         O9        1.0000    0.14730   0.10960   0.68950   Biso      1.000     O          -0.642576           
         O10       1.0000    0.94950   0.70820   0.57060   Biso      1.000     O          -0.6387430000000001           
         O11       1.0000    0.32660   0.98920   0.94350   Biso      1.000     O          -0.530223           
         O12       1.0000    0.81260   0.05670   0.46310   Biso      1.000     O          -0.598195           
         O13       1.0000    0.87930   0.68760   0.73830   Biso      1.000     O          -0.640686           
         O14       1.0000    0.68740   0.44330   0.96310   Biso      1.000     O          -0.598195           
         O15       1.0000    0.64730   0.60960   0.81050   Biso      1.000     O          -0.642576           
         O16       1.0000    0.44950   0.20820   0.92940   Biso      1.000     O          -0.6387430000000001           
         O17       1.0000    0.17340   0.51080   0.44350   Biso      1.000     O          -0.530223           
         O18       1.0000    0.87390   0.97710   0.59040   Biso      1.000     O          -0.586291           
         O19       1.0000    0.62070   0.81240   0.23830   Biso      1.000     O          -0.640686           
         O20       1.0000    0.85270   0.89040   0.31050   Biso      1.000     O          -0.642576           
         O21       1.0000    0.05050   0.29180   0.42940   Biso      1.000     O          -0.6387430000000001           
         O22       1.0000    0.37390   0.47710   0.90960   Biso      1.000     O          -0.586291           
         O23       1.0000    0.62610   0.52290   0.09040   Biso      1.000     O          -0.586291           
         O24       1.0000    0.67340   0.01080   0.05650   Biso      1.000     O          -0.530223 