
##########################################################################
#               Crystallographic Information Format file
#               Produced by PyCifRW module
#
#  This is a CIF file.  CIF has been adopted by the International
#  Union of Crystallography as the standard for data archiving and
#  transmission.
#
#  For information on this file format, follow the CIF links at
#  http://www.iucr.org
##########################################################################

data_image0

_cell_length_a                          7.9375
_cell_length_b                          9.6219
_cell_length_c                          15.8216
_cell_angle_alpha                       90
_cell_angle_beta                        90
_cell_angle_gamma                       96.625
_symmetry_space_group_name_H-M          'P 1'
_symmetry_int_tables_number             1
loop_
  _symmetry_equiv_pos_as_xyz
         'x, y, z' 
loop_
  _atom_site_label
  _atom_site_occupancy
  _atom_site_fract_x
  _atom_site_fract_y
  _atom_site_fract_z
  _atom_site_thermal_displace_type
  _atom_site_B_iso_or_equiv
  _atom_site_type_symbol
  _atom_site_charge
         C1        1.0000    0.39950   0.11380   0.14140   Biso      1.000     C          -0.167353           
         C2        1.0000    0.75130   0.70420   0.78290   Biso      1.000     C          0.626911  
         C3        1.0000    0.60050   0.88620   0.85860   Biso      1.000     C          -0.167354           
         C4        1.0000    0.72530   0.85270   0.80500   Biso      1.000     C          0.16229100000000002           
         C5        1.0000    0.43960   0.07740   0.91890   Biso      1.000     C          0.553066  
         C6        1.0000    0.80340   0.08450   0.77800   Biso      1.000     C          0.29758   
         C7        1.0000    0.59120   0.49010   0.01500   Biso      1.000     C          0.548863  
         C8        1.0000    0.58190   0.02710   0.86790   Biso      1.000     C          0.220568  
         C9        1.0000    0.08190   0.52710   0.63210   Biso      1.000     C          0.220567  
         C10       1.0000    0.10050   0.38620   0.64140   Biso      1.000     C          -0.167352           
         C11       1.0000    0.22530   0.35270   0.69500   Biso      1.000     C          0.16229100000000002           
         C12       1.0000    0.93960   0.57740   0.58110   Biso      1.000     C          0.553066  
         C13       1.0000    0.30340   0.58450   0.72200   Biso      1.000     C          0.29758   
         C14       1.0000    0.09120   0.99010   0.48500   Biso      1.000     C          0.548863  
         C15       1.0000    0.41810   0.97290   0.13210   Biso      1.000     C          0.220568  
         C16       1.0000    0.25130   0.20420   0.71710   Biso      1.000     C          0.626911  
         C17       1.0000    0.90880   0.00990   0.51500   Biso      1.000     C          0.548862  
         C18       1.0000    0.69660   0.41550   0.27800   Biso      1.000     C          0.29758   
         C19       1.0000    0.06040   0.42260   0.41890   Biso      1.000     C          0.553067  
         C20       1.0000    0.40880   0.50990   0.98500   Biso      1.000     C          0.548862  
         C21       1.0000    0.19660   0.91550   0.22200   Biso      1.000     C          0.29758   
         C22       1.0000    0.56040   0.92260   0.08110   Biso      1.000     C          0.553066  
         C23       1.0000    0.24870   0.29580   0.21710   Biso      1.000     C          0.626911  
         C24       1.0000    0.27470   0.14730   0.19500   Biso      1.000     C          0.16229100000000002           
         C25       1.0000    0.91810   0.47290   0.36790   Biso      1.000     C          0.22056599999999998           
         C26       1.0000    0.74870   0.79580   0.28290   Biso      1.000     C          0.626912  
         C27       1.0000    0.89950   0.61380   0.35860   Biso      1.000     C          -0.167352           
         C28       1.0000    0.77470   0.64730   0.30500   Biso      1.000     C          0.16229100000000002           
         H1        1.0000    0.46860   0.18496   0.11209   Biso      1.000     H          0.168972  
         H2        1.0000    0.38263   0.65293   0.74853   Biso      1.000     H          0.07447000000000001           
         H3        1.0000    0.88263   0.15293   0.75147   Biso      1.000     H          0.07447000000000001           
         H4        1.0000    0.53140   0.81504   0.88791   Biso      1.000     H          0.168972  
         H5        1.0000    0.61737   0.34707   0.25147   Biso      1.000     H          0.07447000000000001           
         H6        1.0000    0.96860   0.68496   0.38791   Biso      1.000     H          0.168972  
         H7        1.0000    0.11737   0.84707   0.24853   Biso      1.000     H          0.07447000000000001           
         H8        1.0000    0.03140   0.31504   0.61209   Biso      1.000     H          0.168972  
         Ho1       1.0000    0.92724   0.13308   0.32723   Biso      1.000     Ho          1.9267740000000002  
         Ho2       1.0000    0.42724   0.63308   0.17277   Biso      1.000     Ho          1.9267729999999998  
         Ho3       1.0000    0.07276   0.86692   0.67277   Biso      1.000     Ho          1.9267729999999998  
         Ho4       1.0000    0.57276   0.36692   0.82723   Biso      1.000     Ho          1.9267740000000002  
         N1        1.0000    0.31720   0.87430   0.17276   Biso      1.000     N          -0.402549           
         N2        1.0000    0.33120   0.45220   0.73498   Biso      1.000     N          -0.371327           
         N3        1.0000    0.18280   0.62570   0.67276   Biso      1.000     N          -0.402548           
         N4        1.0000    0.16880   0.04780   0.23498   Biso      1.000     N          -0.371327           
         N5        1.0000    0.68280   0.12570   0.82724   Biso      1.000     N          -0.402549           
         N6        1.0000    0.66880   0.54780   0.26502   Biso      1.000     N          -0.371327           
         N7        1.0000    0.81720   0.37430   0.32724   Biso      1.000     N          -0.402549           
         N8        1.0000    0.83120   0.95220   0.76502   Biso      1.000     N          -0.371327           
         O1        1.0000    0.94850   0.70840   0.57069   Biso      1.000     O          -0.6353949999999999           
         O2        1.0000    0.12360   0.31260   0.26254   Biso      1.000     O          -0.638789           
         O3        1.0000    0.31300   0.55640   0.03773   Biso      1.000     O          -0.6024930000000001           
         O4        1.0000    0.35610   0.39090   0.18988   Biso      1.000     O          -0.641875           
         O5        1.0000    0.55150   0.79160   0.07069   Biso      1.000     O          -0.6353949999999999           
         O6        1.0000    0.82480   0.48860   0.55561   Biso      1.000     O          -0.533381           
         O7        1.0000    0.12730   0.02260   0.41026   Biso      1.000     O          -0.586331           
         O8        1.0000    0.37640   0.18740   0.76254   Biso      1.000     O          -0.638788           
         O9        1.0000    0.18700   0.94360   0.53773   Biso      1.000     O          -0.6024930000000001           
         O10       1.0000    0.14390   0.10910   0.68988   Biso      1.000     O          -0.641875           
         O11       1.0000    0.32480   0.98860   0.94439   Biso      1.000     O          -0.533381           
         O12       1.0000    0.44850   0.20840   0.92931   Biso      1.000     O          -0.6353949999999999           
         O13       1.0000    0.87640   0.68740   0.73746   Biso      1.000     O          -0.638789           
         O14       1.0000    0.68700   0.44360   0.96227   Biso      1.000     O          -0.602494           
         O15       1.0000    0.64390   0.60910   0.81012   Biso      1.000     O          -0.641875           
         O16       1.0000    0.37270   0.47740   0.91026   Biso      1.000     O          -0.586331           
         O17       1.0000    0.17520   0.51140   0.44439   Biso      1.000     O          -0.533381           
         O18       1.0000    0.87270   0.97740   0.58974   Biso      1.000     O          -0.586331           
         O19       1.0000    0.62360   0.81260   0.23746   Biso      1.000     O          -0.638789           
         O20       1.0000    0.81300   0.05640   0.46227   Biso      1.000     O          -0.6024930000000001           
         O21       1.0000    0.85610   0.89090   0.31012   Biso      1.000     O          -0.641875           
         O22       1.0000    0.05150   0.29160   0.42931   Biso      1.000     O          -0.635396           
         O23       1.0000    0.62730   0.52260   0.08974   Biso      1.000     O          -0.586331           
         O24       1.0000    0.67520   0.01140   0.05561   Biso      1.000     O          -0.533381 