
##########################################################################
#               Crystallographic Information Format file
#               Produced by PyCifRW module
#
#  This is a CIF file.  CIF has been adopted by the International
#  Union of Crystallography as the standard for data archiving and
#  transmission.
#
#  For information on this file format, follow the CIF links at
#  http://www.iucr.org
##########################################################################

data_image0

_cell_length_a                          13.6691
_cell_length_b                          14.569
_cell_length_c                          23.6874
_cell_angle_alpha                       90
_cell_angle_beta                        90
_cell_angle_gamma                       114.939
_symmetry_space_group_name_H-M          'P 1'
_symmetry_int_tables_number             1
loop_
  _symmetry_equiv_pos_as_xyz
         'x, y, z' 
loop_
  _atom_site_label
  _atom_site_occupancy
  _atom_site_fract_x
  _atom_site_fract_y
  _atom_site_fract_z
  _atom_site_thermal_displace_type
  _atom_site_B_iso_or_equiv
  _atom_site_type_symbol
  _atom_site_charge
         C1        1.0000    0.17000   0.33070   0.03626   Biso      1.000     C          -0.101079           
         C2        1.0000    0.90125   0.20763   0.58109   Biso      1.000     C          -0.01828  
         C3        1.0000    0.91800   0.30055   0.60433   Biso      1.000     C          -0.104683           
         C4        1.0000    0.86220   0.35405   0.58338   Biso      1.000     C          -0.091368           
         C5        1.0000    0.78938   0.31632   0.53890   Biso      1.000     C          -0.200474           
         C6        1.0000    0.43626   0.19265   0.03164   Biso      1.000     C          -0.209207           
         C7        1.0000    0.46542   0.27529   0.06864   Biso      1.000     C          -0.089919           
         C8        1.0000    0.57249   0.33244   0.08380   Biso      1.000     C          -0.118055           
         C9        1.0000    0.65338   0.31120   0.06021   Biso      1.000     C          -0.018277           
         C10       1.0000    0.62580   0.22853   0.02376   Biso      1.000     C          -0.104023           
         C11       1.0000    0.51852   0.16935   0.01101   Biso      1.000     C          -0.083846           
         C12       1.0000    0.76951   0.37818   0.07081   Biso      1.000     C          0.638001  
         C13       1.0000    0.83000   0.16930   0.53626   Biso      1.000     C          -0.101078           
         C14       1.0000    0.24018   0.98584   0.03358   Biso      1.000     C          -0.199067           
         C15       1.0000    0.10397   0.81248   0.02981   Biso      1.000     C          -0.09735  
         C16       1.0000    0.15323   0.78508   0.07340   Biso      1.000     C          -0.02034  
         C17       1.0000    0.24689   0.85762   0.09706   Biso      1.000     C          -0.102592           
         C18       1.0000    0.28974   0.95686   0.07707   Biso      1.000     C          -0.087185           
         C19       1.0000    0.10450   0.67847   0.09516   Biso      1.000     C          0.597691  
         C20       1.0000    0.27870   0.12444   0.93041   Biso      1.000     C          -0.177624           
         C21       1.0000    0.36389   0.15570   0.89211   Biso      1.000     C          -0.076221           
         C22       1.0000    0.34569   0.15185   0.83399   Biso      1.000     C          -0.09136  
         C23       1.0000    0.24101   0.11683   0.81374   Biso      1.000     C          -0.055829           
         C24       1.0000    0.15499   0.08705   0.85112   Biso      1.000     C          -0.095976           
         C25       1.0000    0.17383   0.09236   0.90858   Biso      1.000     C          -0.078407           
         C26       1.0000    0.14701   0.91134   0.01026   Biso      1.000     C          -0.082596           
         C27       1.0000    0.21481   0.10810   0.75247   Biso      1.000     C          0.626714  
         C28       1.0000    0.77488   0.22299   0.51569   Biso      1.000     C          -0.081292           
         C29       1.0000    0.56374   0.30735   0.53164   Biso      1.000     C          -0.209208           
         C30       1.0000    0.09875   0.29237   0.08109   Biso      1.000     C          -0.018279           
         C31       1.0000    0.08200   0.19945   0.10433   Biso      1.000     C          -0.104683           
         C32       1.0000    0.13780   0.14595   0.08338   Biso      1.000     C          -0.091368           
         C33       1.0000    0.21062   0.18368   0.03890   Biso      1.000     C          -0.200474           
         C34       1.0000    0.78519   0.39190   0.25247   Biso      1.000     C          0.626715  
         C35       1.0000    0.82617   0.40764   0.40858   Biso      1.000     C          -0.078408           
         C36       1.0000    0.84501   0.41295   0.35112   Biso      1.000     C          -0.095977           
         C37       1.0000    0.75899   0.38317   0.31374   Biso      1.000     C          -0.055827           
         C38       1.0000    0.65431   0.34815   0.33399   Biso      1.000     C          -0.091361           
         C39       1.0000    0.63611   0.34430   0.39211   Biso      1.000     C          -0.076221           
         C40       1.0000    0.72130   0.37556   0.43041   Biso      1.000     C          -0.177624           
         C41       1.0000    0.95848   0.14699   0.60336   Biso      1.000     C          0.597495  
         C42       1.0000    0.89550   0.82153   0.59516   Biso      1.000     C          0.597691  
         C43       1.0000    0.75311   0.64238   0.59706   Biso      1.000     C          -0.102592           
         C44       1.0000    0.84677   0.71492   0.57340   Biso      1.000     C          -0.020342           
         C45       1.0000    0.89603   0.68752   0.52981   Biso      1.000     C          -0.097348           
         C46       1.0000    0.85299   0.58866   0.51026   Biso      1.000     C          -0.082597           
         C47       1.0000    0.75982   0.51416   0.53358   Biso      1.000     C          -0.199067           
         C48       1.0000    0.23049   0.12182   0.57081   Biso      1.000     C          0.638001  
         C49       1.0000    0.48148   0.33065   0.51101   Biso      1.000     C          -0.083846           
         C50       1.0000    0.37420   0.27147   0.52376   Biso      1.000     C          -0.104023           
         C51       1.0000    0.34662   0.18880   0.56021   Biso      1.000     C          -0.018278           
         C52       1.0000    0.42751   0.16756   0.58380   Biso      1.000     C          -0.118054           
         C53       1.0000    0.53458   0.22471   0.56864   Biso      1.000     C          -0.089918           
         C54       1.0000    0.71026   0.54314   0.57707   Biso      1.000     C          -0.087185           
         C55       1.0000    0.21062   0.68368   0.46110   Biso      1.000     C          -0.200474           
         C56       1.0000    0.13780   0.64595   0.41662   Biso      1.000     C          -0.091368           
         C57       1.0000    0.08200   0.69945   0.39567   Biso      1.000     C          -0.104683           
         C58       1.0000    0.83000   0.66930   0.96374   Biso      1.000     C          -0.101079           
         C59       1.0000    0.77488   0.72299   0.98431   Biso      1.000     C          -0.081292           
         C60       1.0000    0.95848   0.64699   0.89664   Biso      1.000     C          0.597495  
         C61       1.0000    0.56374   0.80735   0.96836   Biso      1.000     C          -0.209207           
         C62       1.0000    0.53458   0.72471   0.93136   Biso      1.000     C          -0.089919           
         C63       1.0000    0.42751   0.66756   0.91620   Biso      1.000     C          -0.118055           
         C64       1.0000    0.34662   0.68880   0.93979   Biso      1.000     C          -0.018277           
         C65       1.0000    0.37420   0.77147   0.97624   Biso      1.000     C          -0.104023           
         C66       1.0000    0.48148   0.83065   0.98899   Biso      1.000     C          -0.083846           
         C67       1.0000    0.23049   0.62182   0.92919   Biso      1.000     C          0.638001  
         C68       1.0000    0.75982   0.01416   0.96642   Biso      1.000     C          -0.199067           
         C69       1.0000    0.90125   0.70763   0.91891   Biso      1.000     C          -0.018279           
         C70       1.0000    0.85299   0.08866   0.98974   Biso      1.000     C          -0.082598           
         C71       1.0000    0.84677   0.21492   0.92660   Biso      1.000     C          -0.020342           
         C72       1.0000    0.75311   0.14238   0.90294   Biso      1.000     C          -0.102591           
         C73       1.0000    0.71026   0.04314   0.92293   Biso      1.000     C          -0.087186           
         C74       1.0000    0.89550   0.32153   0.90484   Biso      1.000     C          0.597691  
         C75       1.0000    0.72130   0.87556   0.06959   Biso      1.000     C          -0.177624           
         C76       1.0000    0.63611   0.84430   0.10789   Biso      1.000     C          -0.076221           
         C77       1.0000    0.65431   0.84815   0.16601   Biso      1.000     C          -0.09136  
         C78       1.0000    0.75899   0.88317   0.18626   Biso      1.000     C          -0.055829           
         C79       1.0000    0.84501   0.91295   0.14888   Biso      1.000     C          -0.095976           
         C80       1.0000    0.82617   0.90764   0.09142   Biso      1.000     C          -0.078407           
         C81       1.0000    0.78519   0.89190   0.24753   Biso      1.000     C          0.626714  
         C82       1.0000    0.89603   0.18752   0.97019   Biso      1.000     C          -0.097346           
         C83       1.0000    0.91800   0.80055   0.89567   Biso      1.000     C          -0.104683           
         C84       1.0000    0.86220   0.85405   0.91662   Biso      1.000     C          -0.091368           
         C85       1.0000    0.78938   0.81632   0.96110   Biso      1.000     C          -0.200474           
         C86       1.0000    0.09875   0.79237   0.41891   Biso      1.000     C          -0.01828  
         C87       1.0000    0.17000   0.83070   0.46374   Biso      1.000     C          -0.101078           
         C88       1.0000    0.22512   0.77701   0.48431   Biso      1.000     C          -0.081292           
         C89       1.0000    0.04152   0.85301   0.39664   Biso      1.000     C          0.597495  
         C90       1.0000    0.43626   0.69265   0.46836   Biso      1.000     C          -0.209207           
         C91       1.0000    0.46542   0.77529   0.43136   Biso      1.000     C          -0.089919           
         C92       1.0000    0.57249   0.83244   0.41620   Biso      1.000     C          -0.118055           
         C93       1.0000    0.65338   0.81120   0.43979   Biso      1.000     C          -0.018277           
         C94       1.0000    0.62580   0.72853   0.47624   Biso      1.000     C          -0.104023           
         C95       1.0000    0.51852   0.66935   0.48899   Biso      1.000     C          -0.083846           
         C96       1.0000    0.76951   0.87818   0.42919   Biso      1.000     C          0.638001  
         C97       1.0000    0.24018   0.48584   0.46642   Biso      1.000     C          -0.199067           
         C98       1.0000    0.14701   0.41134   0.48974   Biso      1.000     C          -0.082598           
         C99       1.0000    0.10397   0.31248   0.47019   Biso      1.000     C          -0.097349           
         C100      1.0000    0.15323   0.28508   0.42660   Biso      1.000     C          -0.02034  
         C101      1.0000    0.24689   0.35762   0.40294   Biso      1.000     C          -0.102592           
         C102      1.0000    0.28974   0.45686   0.42293   Biso      1.000     C          -0.087185           
         C103      1.0000    0.10450   0.17847   0.40484   Biso      1.000     C          0.597691  
         C104      1.0000    0.27870   0.62444   0.56959   Biso      1.000     C          -0.177624           
         C105      1.0000    0.36389   0.65570   0.60789   Biso      1.000     C          -0.076221           
         C106      1.0000    0.34569   0.65185   0.66601   Biso      1.000     C          -0.09136  
         C107      1.0000    0.24101   0.61683   0.68626   Biso      1.000     C          -0.055829           
         C108      1.0000    0.15499   0.58705   0.64888   Biso      1.000     C          -0.095976           
         C109      1.0000    0.17383   0.59236   0.59142   Biso      1.000     C          -0.078407           
         C110      1.0000    0.21481   0.60810   0.74753   Biso      1.000     C          0.626714  
         C111      1.0000    0.04152   0.35301   0.10336   Biso      1.000     C          0.597495  
         C112      1.0000    0.22512   0.27701   0.01569   Biso      1.000     C          -0.081292           
         Ca1       1.0000    0.01577   0.00132   0.65686   Biso      1.000     Ca          1.416128  
         Ca2       1.0000    0.98423   0.49868   0.15686   Biso      1.000     Ca          1.416128  
         Ca3       1.0000    0.98423   0.99868   0.34314   Biso      1.000     Ca          1.416129  
         Ca4       1.0000    0.01577   0.50132   0.84314   Biso      1.000     Ca          1.416129  
         Ca5       1.0000    0.00000   0.00000   0.50000   Biso      1.000     Ca          1.420345  
         Ca6       1.0000    0.00000   0.50000   0.00000   Biso      1.000     Ca          1.420345  
         H1        1.0000    0.72900   0.87700   0.31760   Biso      1.000     H          0.397002  
         H2        1.0000    0.12600   0.08260   0.09970   Biso      1.000     H          0.102214  
         H3        1.0000    0.03240   0.17240   0.13460   Biso      1.000     H          0.11291   
         H4        1.0000    0.18090   0.39370   0.01970   Biso      1.000     H          0.120589  
         H5        1.0000    0.27390   0.30400   0.98510   Biso      1.000     H          0.104112  
         H6        1.0000    0.41090   0.29250   0.08360   Biso      1.000     H          0.113999  
         H7        1.0000    0.59010   0.38600   0.11030   Biso      1.000     H          0.116208  
         H8        1.0000    0.11210   0.92870   0.98020   Biso      1.000     H          0.094547  
         H9        1.0000    0.50060   0.11150   0.98760   Biso      1.000     H          0.099602  
         H10       1.0000    0.72900   0.37700   0.18240   Biso      1.000     H          0.397002  
         H11       1.0000    0.04020   0.76330   0.01310   Biso      1.000     H          0.107285  
         H12       1.0000    0.28180   0.83960   0.12690   Biso      1.000     H          0.119062  
         H13       1.0000    0.35410   0.00570   0.09340   Biso      1.000     H          0.102354  
         H14       1.0000    0.68070   0.21290   0.00770   Biso      1.000     H          0.111651  
         H15       1.0000    0.88530   0.42610   0.43390   Biso      1.000     H          0.101853  
         H16       1.0000    0.64590   0.49430   0.59340   Biso      1.000     H          0.102354  
         H17       1.0000    0.56420   0.31990   0.40580   Biso      1.000     H          0.106998  
         H18       1.0000    0.43580   0.18010   0.90580   Biso      1.000     H          0.106998  
         H19       1.0000    0.71820   0.66040   0.62690   Biso      1.000     H          0.119062  
         H20       1.0000    0.95980   0.73670   0.51310   Biso      1.000     H          0.107285  
         H21       1.0000    0.88790   0.57130   0.48020   Biso      1.000     H          0.094547  
         H22       1.0000    0.49940   0.38850   0.48760   Biso      1.000     H          0.099602  
         H23       1.0000    0.31930   0.28710   0.50770   Biso      1.000     H          0.111651  
         H24       1.0000    0.40990   0.11400   0.61030   Biso      1.000     H          0.116208  
         H25       1.0000    0.58910   0.20750   0.58360   Biso      1.000     H          0.113999  
         H26       1.0000    0.72610   0.19600   0.48510   Biso      1.000     H          0.104112  
         H27       1.0000    0.81910   0.10630   0.51970   Biso      1.000     H          0.120589  
         H28       1.0000    0.96760   0.32760   0.63460   Biso      1.000     H          0.11291   
         H29       1.0000    0.87400   0.41740   0.59970   Biso      1.000     H          0.102214  
         H30       1.0000    0.91670   0.43700   0.33720   Biso      1.000     H          0.116011  
         H31       1.0000    0.40470   0.17310   0.80840   Biso      1.000     H          0.121775  
         H32       1.0000    0.59530   0.32690   0.30840   Biso      1.000     H          0.121775  
         H33       1.0000    0.11470   0.07390   0.93390   Biso      1.000     H          0.101853  
         H34       1.0000    0.96760   0.82760   0.86540   Biso      1.000     H          0.11291   
         H35       1.0000    0.81910   0.60630   0.98030   Biso      1.000     H          0.120589  
         H36       1.0000    0.72610   0.69600   0.01490   Biso      1.000     H          0.104112  
         H37       1.0000    0.58910   0.70750   0.91640   Biso      1.000     H          0.113999  
         H38       1.0000    0.40990   0.61400   0.88970   Biso      1.000     H          0.116208  
         H39       1.0000    0.31930   0.78710   0.99230   Biso      1.000     H          0.111651  
         H40       1.0000    0.49940   0.88850   0.01240   Biso      1.000     H          0.099602  
         H41       1.0000    0.88790   0.07130   0.01980   Biso      1.000     H          0.094547  
         H42       1.0000    0.95980   0.23670   0.98690   Biso      1.000     H          0.107285  
         H43       1.0000    0.71820   0.16040   0.87310   Biso      1.000     H          0.119062  
         H44       1.0000    0.08330   0.06300   0.83720   Biso      1.000     H          0.11601   
         H45       1.0000    0.56420   0.81990   0.09420   Biso      1.000     H          0.106998  
         H46       1.0000    0.59530   0.82690   0.19160   Biso      1.000     H          0.121775  
         H47       1.0000    0.91670   0.93700   0.16280   Biso      1.000     H          0.11601   
         H48       1.0000    0.88530   0.92610   0.06610   Biso      1.000     H          0.101853  
         H49       1.0000    0.87400   0.91740   0.90030   Biso      1.000     H          0.102214  
         H50       1.0000    0.27100   0.62300   0.81760   Biso      1.000     H          0.397001  
         H51       1.0000    0.64590   0.99430   0.90660   Biso      1.000     H          0.102354  
         H52       1.0000    0.27390   0.80400   0.51490   Biso      1.000     H          0.104112  
         H53       1.0000    0.11470   0.57390   0.56610   Biso      1.000     H          0.101853  
         H54       1.0000    0.27100   0.12300   0.68240   Biso      1.000     H          0.397001  
         H55       1.0000    0.12600   0.58260   0.40030   Biso      1.000     H          0.102214  
         H56       1.0000    0.03240   0.67240   0.36540   Biso      1.000     H          0.11291   
         H57       1.0000    0.18090   0.89370   0.48030   Biso      1.000     H          0.120589  
         H58       1.0000    0.59010   0.88600   0.38970   Biso      1.000     H          0.116208  
         H59       1.0000    0.68070   0.71290   0.49230   Biso      1.000     H          0.111651  
         H60       1.0000    0.41090   0.79250   0.41640   Biso      1.000     H          0.113999  
         H61       1.0000    0.11210   0.42870   0.51980   Biso      1.000     H          0.094547  
         H62       1.0000    0.04020   0.26330   0.48690   Biso      1.000     H          0.107285  
         H63       1.0000    0.28180   0.33960   0.37310   Biso      1.000     H          0.119062  
         H64       1.0000    0.35410   0.50570   0.40660   Biso      1.000     H          0.102354  
         H65       1.0000    0.43580   0.68010   0.59420   Biso      1.000     H          0.106998  
         H66       1.0000    0.40470   0.67310   0.69160   Biso      1.000     H          0.121775  
         H67       1.0000    0.08330   0.56300   0.66280   Biso      1.000     H          0.11601   
         H68       1.0000    0.50060   0.61150   0.51240   Biso      1.000     H          0.099602  
         O1        1.0000    0.01787   0.11541   0.42772   Biso      1.000     O          -0.695716           
         O2        1.0000    0.98684   0.82710   0.35256   Biso      1.000     O          -0.607309           
         O3        1.0000    0.05321   0.93255   0.42331   Biso      1.000     O          -0.706089           
         O4        1.0000    0.83100   0.89801   0.47085   Biso      1.000     O          -0.621374           
         O5        1.0000    0.80015   0.91211   0.37983   Biso      1.000     O          -0.67549  
         O6        1.0000    0.14817   0.15504   0.36414   Biso      1.000     O          -0.623968           
         O7        1.0000    0.12259   0.58257   0.76383   Biso      1.000     O          -0.574035           
         O8        1.0000    0.87741   0.91743   0.26383   Biso      1.000     O          -0.574035           
         O9        1.0000    0.01316   0.67290   0.85256   Biso      1.000     O          -0.607309           
         O10       1.0000    0.94679   0.56745   0.92331   Biso      1.000     O          -0.706089           
         O11       1.0000    0.29665   0.12859   0.71792   Biso      1.000     O          -0.494635           
         O12       1.0000    0.16900   0.60199   0.97085   Biso      1.000     O          -0.621374           
         O13       1.0000    0.19985   0.58789   0.87983   Biso      1.000     O          -0.67549  
         O14       1.0000    0.85183   0.34496   0.86414   Biso      1.000     O          -0.623968           
         O15       1.0000    0.98213   0.38459   0.92772   Biso      1.000     O          -0.695716           
         O16       1.0000    0.29665   0.62859   0.78208   Biso      1.000     O          -0.494635           
         O17       1.0000    0.12259   0.08257   0.73617   Biso      1.000     O          -0.574035           
         O18       1.0000    0.98213   0.88459   0.57228   Biso      1.000     O          -0.695716           
         O19       1.0000    0.14817   0.65504   0.13586   Biso      1.000     O          -0.623968           
         O20       1.0000    0.01316   0.17290   0.64744   Biso      1.000     O          -0.607309           
         O21       1.0000    0.94679   0.06745   0.57669   Biso      1.000     O          -0.706089           
         O22       1.0000    0.16900   0.10199   0.52915   Biso      1.000     O          -0.621374           
         O23       1.0000    0.01787   0.61541   0.07228   Biso      1.000     O          -0.695716           
         O24       1.0000    0.85183   0.84496   0.63586   Biso      1.000     O          -0.623968           
         O25       1.0000    0.19985   0.08789   0.62017   Biso      1.000     O          -0.67549  
         O26       1.0000    0.70335   0.37141   0.21792   Biso      1.000     O          -0.494635           
         O27       1.0000    0.98684   0.32710   0.14744   Biso      1.000     O          -0.607309           
         O28       1.0000    0.05321   0.43255   0.07669   Biso      1.000     O          -0.706089           
         O29       1.0000    0.83100   0.39801   0.02915   Biso      1.000     O          -0.621374           
         O30       1.0000    0.80015   0.41211   0.12017   Biso      1.000     O          -0.67549  
         O31       1.0000    0.87741   0.41743   0.23617   Biso      1.000     O          -0.574035           
         O32       1.0000    0.70335   0.87141   0.28208   Biso      1.000     O          -0.494635           
         Si1       1.0000    0.70684   0.37959   0.50911   Biso      1.000     Si          0.649293  
         Si2       1.0000    0.29316   0.12041   0.00911   Biso      1.000     Si          0.649293  
         Si3       1.0000    0.29316   0.62041   0.49089   Biso      1.000     Si          0.649293  
         Si4       1.0000    0.70684   0.87959   0.99089   Biso      1.000     Si          0.649293 