
##########################################################################
#               Crystallographic Information Format file
#               Produced by PyCifRW module
#
#  This is a CIF file.  CIF has been adopted by the International
#  Union of Crystallography as the standard for data archiving and
#  transmission.
#
#  For information on this file format, follow the CIF links at
#  http://www.iucr.org
##########################################################################

data_image0

_cell_length_a                          9.2197
_cell_length_b                          9.6228
_cell_length_c                          10.5649
_cell_angle_alpha                       90
_cell_angle_beta                        90
_cell_angle_gamma                       90
_symmetry_space_group_name_H-M          'P 1'
_symmetry_int_tables_number             1
loop_
  _symmetry_equiv_pos_as_xyz
         'x, y, z' 
loop_
  _atom_site_label
  _atom_site_occupancy
  _atom_site_fract_x
  _atom_site_fract_y
  _atom_site_fract_z
  _atom_site_thermal_displace_type
  _atom_site_B_iso_or_equiv
  _atom_site_type_symbol
  _atom_site_charge
         C1        1.0000    0.77370   0.66100   0.77560   Biso      1.000     C          0.018058  
         C2        1.0000    0.45860   0.76070   0.39380   Biso      1.000     C          0.605599  
         C3        1.0000    0.29780   0.77360   0.35780   Biso      1.000     C          0.03096   
         C4        1.0000    0.27370   0.83900   0.22440   Biso      1.000     C          0.018058  
         C5        1.0000    0.11000   0.85690   0.20410   Biso      1.000     C          0.603141  
         C6        1.0000    0.95860   0.73930   0.60620   Biso      1.000     C          0.605599  
         C7        1.0000    0.79780   0.72640   0.64220   Biso      1.000     C          0.03096   
         C8        1.0000    0.61000   0.64310   0.79590   Biso      1.000     C          0.603141  
         C9        1.0000    0.04140   0.23930   0.89380   Biso      1.000     C          0.605599  
         C10       1.0000    0.20220   0.22640   0.85780   Biso      1.000     C          0.03096   
         C11       1.0000    0.22630   0.16100   0.72440   Biso      1.000     C          0.018058  
         C12       1.0000    0.39000   0.14310   0.70410   Biso      1.000     C          0.603141  
         C13       1.0000    0.54140   0.26070   0.10620   Biso      1.000     C          0.605599  
         C14       1.0000    0.70220   0.27360   0.14220   Biso      1.000     C          0.03096   
         C15       1.0000    0.72630   0.33900   0.27560   Biso      1.000     C          0.018058  
         C16       1.0000    0.89000   0.35690   0.29590   Biso      1.000     C          0.603141  
         Ca1       1.0000    0.81393   0.68112   0.32289   Biso      1.000     Ca          1.411493  
         Ca2       1.0000    0.31393   0.81888   0.67711   Biso      1.000     Ca          1.411493  
         Ca3       1.0000    0.68607   0.31888   0.82289   Biso      1.000     Ca          1.411492  
         Ca4       1.0000    0.18607   0.18112   0.17711   Biso      1.000     Ca          1.411493  
         H1        1.0000    0.24906   0.67378   0.35715   Biso      1.000     H          0.089804  
         H2        1.0000    0.31088   0.76255   0.15724   Biso      1.000     H          0.089994  
         H3        1.0000    0.68912   0.26255   0.34276   Biso      1.000     H          0.089994  
         H4        1.0000    0.57131   0.45464   0.33983   Biso      1.000     H          0.360617  
         H5        1.0000    0.87631   0.31303   0.03443   Biso      1.000     H          0.325954  
         H6        1.0000    0.18912   0.23745   0.65724   Biso      1.000     H          0.089994  
         H7        1.0000    0.75094   0.17378   0.14285   Biso      1.000     H          0.089804  
         H8        1.0000    0.07131   0.04536   0.66017   Biso      1.000     H          0.360617  
         H9        1.0000    0.37631   0.18697   0.96557   Biso      1.000     H          0.325954  
         H10       1.0000    0.81088   0.73745   0.84276   Biso      1.000     H          0.089994  
         H11       1.0000    0.74906   0.82622   0.64285   Biso      1.000     H          0.089804  
         H12       1.0000    0.92869   0.54536   0.83983   Biso      1.000     H          0.360617  
         H13       1.0000    0.62369   0.68697   0.53443   Biso      1.000     H          0.325954  
         H14       1.0000    0.12369   0.81303   0.46557   Biso      1.000     H          0.325954  
         H15       1.0000    0.25094   0.32622   0.85715   Biso      1.000     H          0.089804  
         H16       1.0000    0.42869   0.95464   0.16017   Biso      1.000     H          0.360617  
         O1        1.0000    0.53846   0.75420   0.78371   Biso      1.000     O          -0.6663979999999999           
         O2        1.0000    0.83948   0.52583   0.78152   Biso      1.000     O          -0.48771400000000004          
         O3        1.0000    0.72697   0.64527   0.54798   Biso      1.000     O          -0.561528           
         O4        1.0000    0.04827   0.76481   0.68936   Biso      1.000     O          -0.612122           
         O5        1.0000    0.33948   0.97417   0.21848   Biso      1.000     O          -0.48771400000000004          
         O6        1.0000    0.05799   0.97005   0.17443   Biso      1.000     O          -0.609086           
         O7        1.0000    0.03846   0.74580   0.21629   Biso      1.000     O          -0.6663979999999999           
         O8        1.0000    0.55799   0.52995   0.82557   Biso      1.000     O          -0.609086           
         O9        1.0000    0.22697   0.85473   0.45202   Biso      1.000     O          -0.561528           
         O10       1.0000    0.98459   0.73265   0.48667   Biso      1.000     O          -0.598772           
         O11       1.0000    0.01541   0.23265   0.01333   Biso      1.000     O          -0.598772           
         O12       1.0000    0.66052   0.47417   0.28152   Biso      1.000     O          -0.48771499999999995          
         O13       1.0000    0.27303   0.14527   0.95202   Biso      1.000     O          -0.561529           
         O14       1.0000    0.16052   0.02583   0.71848   Biso      1.000     O          -0.48771499999999995          
         O15       1.0000    0.46154   0.25420   0.71629   Biso      1.000     O          -0.6663979999999999           
         O16       1.0000    0.44201   0.02995   0.67443   Biso      1.000     O          -0.609086           
         O17       1.0000    0.51541   0.26735   0.98667   Biso      1.000     O          -0.598772           
         O18       1.0000    0.45173   0.23519   0.18936   Biso      1.000     O          -0.612123           
         O19       1.0000    0.77303   0.35473   0.04798   Biso      1.000     O          -0.561528           
         O20       1.0000    0.96154   0.24580   0.28371   Biso      1.000     O          -0.6663979999999999           
         O21       1.0000    0.94201   0.47005   0.32557   Biso      1.000     O          -0.609086           
         O22       1.0000    0.54827   0.73519   0.31064   Biso      1.000     O          -0.612122           
         O23       1.0000    0.95173   0.26481   0.81064   Biso      1.000     O          -0.612122           
         O24       1.0000    0.48459   0.76735   0.51333   Biso      1.000     O          -0.598772 