
##########################################################################
#               Crystallographic Information Format file
#               Produced by PyCifRW module
#
#  This is a CIF file.  CIF has been adopted by the International
#  Union of Crystallography as the standard for data archiving and
#  transmission.
#
#  For information on this file format, follow the CIF links at
#  http://www.iucr.org
##########################################################################

data_image0

_cell_length_a                          12.5035
_cell_length_b                          18.1874
_cell_length_c                          5.82
_cell_angle_alpha                       90
_cell_angle_beta                        101.923
_cell_angle_gamma                       90
_symmetry_space_group_name_H-M          'P 1'
_symmetry_int_tables_number             1
loop_
  _symmetry_equiv_pos_as_xyz
         'x, y, z' 
loop_
  _atom_site_label
  _atom_site_occupancy
  _atom_site_fract_x
  _atom_site_fract_y
  _atom_site_fract_z
  _atom_site_thermal_displace_type
  _atom_site_B_iso_or_equiv
  _atom_site_type_symbol
  _atom_site_charge
         C1        1.0000    0.99900   0.98490   0.54100   Biso      1.000     C          0.060804  
         C2        1.0000    0.20930   0.48630   0.49000   Biso      1.000     C          0.08379500000000001           
         C3        1.0000    0.76880   0.47830   0.91300   Biso      1.000     C          -0.009588           
         C4        1.0000    0.31150   0.39430   0.27900   Biso      1.000     C          -0.031075           
         C5        1.0000    0.98340   0.56520   0.47600   Biso      1.000     C          0.10268599999999999           
         C6        1.0000    0.87630   0.59920   0.49000   Biso      1.000     C          0.009792  
         C7        1.0000    0.84710   0.58780   0.72600   Biso      1.000     C          0.06755   
         C8        1.0000    0.30910   0.52290   0.16700   Biso      1.000     C          0.047002999999999996          
         C9        1.0000    0.65160   0.57320   0.68100   Biso      1.000     C          0.052161  
         C10       1.0000    0.09700   0.46270   0.35700   Biso      1.000     C          0.032531  
         C11       1.0000    0.90300   0.96270   0.64300   Biso      1.000     C          0.032501  
         C12       1.0000    0.79070   0.98630   0.51000   Biso      1.000     C          0.08378   
         C13       1.0000    0.23120   0.97830   0.08700   Biso      1.000     C          -0.009593           
         C14       1.0000    0.68850   0.89430   0.72100   Biso      1.000     C          -0.031079000000000002         
         C15       1.0000    0.00100   0.48490   0.45900   Biso      1.000     C          0.060814  
         C16       1.0000    0.34840   0.07320   0.31900   Biso      1.000     C          0.052148  
         C17       1.0000    0.69090   0.02290   0.83300   Biso      1.000     C          0.046999  
         C18       1.0000    0.01660   0.06520   0.52400   Biso      1.000     C          0.10268   
         C19       1.0000    0.15290   0.08780   0.27400   Biso      1.000     C          0.06754500000000001           
         C20       1.0000    0.12370   0.09920   0.51000   Biso      1.000     C          0.009762  
         La1       1.0000    0.66950   0.25000   0.37630   Biso      1.000     La          2.206545  
         La2       1.0000    0.33050   0.75000   0.62370   Biso      1.000     La          2.206554  
         N1        1.0000    0.75710   0.53200   0.71300   Biso      1.000     N          0.070187  
         N2        1.0000    0.69970   0.97150   0.63600   Biso      1.000     N          0.07324   
         N3        1.0000    0.24290   0.03200   0.28700   Biso      1.000     N          0.070199  
         N4        1.0000    0.30030   0.47150   0.36400   Biso      1.000     N          0.073252  
         O1        1.0000    0.49220   0.47590   0.23300   Biso      1.000     O          -0.44638599999999995          
         O2        1.0000    0.91800   0.36800   0.95900   Biso      1.000     O          -0.538425           
         O3        1.0000    0.73200   0.34680   0.69400   Biso      1.000     O          -0.719425           
         O4        1.0000    0.75160   0.34870   0.14000   Biso      1.000     O          -0.7884909999999999           
         O5        1.0000    0.42990   0.08920   0.91400   Biso      1.000     O          -0.44394300000000003          
         O6        1.0000    0.43260   0.36590   0.95500   Biso      1.000     O          -0.5115029999999999           
         O7        1.0000    0.49960   0.16820   0.25900   Biso      1.000     O          -0.682242           
         O8        1.0000    0.54930   0.03010   0.27800   Biso      1.000     O          -0.479048           
         O9        1.0000    0.87300   0.10660   0.93100   Biso      1.000     O          -0.605114           
         O10       1.0000    0.69510   0.16300   0.71000   Biso      1.000     O          -0.7703260000000001           
         O11       1.0000    0.51690   0.34860   0.39800   Biso      1.000     O          -0.6178640000000001           
         O12       1.0000    0.71850   0.13410   0.15100   Biso      1.000     O          -0.776378           
         O13       1.0000    0.30490   0.66300   0.29000   Biso      1.000     O          -0.770335           
         O14       1.0000    0.12700   0.60660   0.06900   Biso      1.000     O          -0.6051350000000001           
         O15       1.0000    0.56740   0.86590   0.04500   Biso      1.000     O          -0.511497           
         O16       1.0000    0.48310   0.84860   0.60200   Biso      1.000     O          -0.617846           
         O17       1.0000    0.50780   0.97590   0.76700   Biso      1.000     O          -0.44636400000000004          
         O18       1.0000    0.08200   0.86800   0.04100   Biso      1.000     O          -0.538432           
         O19       1.0000    0.28150   0.63410   0.84900   Biso      1.000     O          -0.776384           
         O20       1.0000    0.24840   0.84870   0.86000   Biso      1.000     O          -0.788478           
         O21       1.0000    0.26800   0.84680   0.30600   Biso      1.000     O          -0.71944  
         O22       1.0000    0.57010   0.58920   0.08600   Biso      1.000     O          -0.44393900000000003          
         O23       1.0000    0.50040   0.66820   0.74100   Biso      1.000     O          -0.682247           
         O24       1.0000    0.45070   0.53010   0.72200   Biso      1.000     O          -0.479067           
         P1        1.0000    0.79320   0.38040   0.92700   Biso      1.000     P          1.193675  
         P2        1.0000    0.44680   0.39860   0.20300   Biso      1.000     P          1.0833139999999999  
         P3        1.0000    0.25210   0.61260   0.08600   Biso      1.000     P          1.2189219999999998  
         P4        1.0000    0.74790   0.11260   0.91400   Biso      1.000     P          1.218918  
         P5        1.0000    0.20680   0.88040   0.07300   Biso      1.000     P          1.193698  
         P6        1.0000    0.46520   0.08890   0.18000   Biso      1.000     P          1.117649  
         P7        1.0000    0.53480   0.58890   0.82000   Biso      1.000     P          1.117652  
         P8        1.0000    0.55320   0.89860   0.79700   Biso      1.000     P          1.0832899999999999 