
##########################################################################
#               Crystallographic Information Format file
#               Produced by PyCifRW module
#
#  This is a CIF file.  CIF has been adopted by the International
#  Union of Crystallography as the standard for data archiving and
#  transmission.
#
#  For information on this file format, follow the CIF links at
#  http://www.iucr.org
##########################################################################

data_image0

_cell_length_a                          6.8376
_cell_length_b                          15.161
_cell_length_c                          15.161
_cell_angle_alpha                       62.2186
_cell_angle_beta                        81.3537
_cell_angle_gamma                       98.6463
_symmetry_space_group_name_H-M          'P 1'
_symmetry_int_tables_number             1
loop_
  _symmetry_equiv_pos_as_xyz
         'x, y, z' 
loop_
  _atom_site_label
  _atom_site_occupancy
  _atom_site_fract_x
  _atom_site_fract_y
  _atom_site_fract_z
  _atom_site_thermal_displace_type
  _atom_site_B_iso_or_equiv
  _atom_site_type_symbol
  _atom_site_charge
         C1        1.0000    0.96230   0.10280   0.46520   Biso      1.000     C          0.295188  
         C2        1.0000    0.92220   0.54390   0.90970   Biso      1.000     C          -0.128727           
         C3        1.0000    0.83810   0.56120   0.82080   Biso      1.000     C          0.541021  
         C4        1.0000    0.33810   0.52700   0.46900   Biso      1.000     C          -0.184345           
         C5        1.0000    0.57250   0.53480   0.56800   Biso      1.000     C          0.2949    
         C6        1.0000    0.37830   0.54640   0.54390   Biso      1.000     C          -0.129413           
         C7        1.0000    0.27690   0.61800   0.56120   Biso      1.000     C          0.5412899999999999  
         C8        1.0000    0.81110   0.00400   0.52700   Biso      1.000     C          -0.183583           
         C9        1.0000    0.03770   0.89720   0.53480   Biso      1.000     C          0.29519   
         C10       1.0000    0.83190   0.90970   0.54640   Biso      1.000     C          -0.130185           
         C11       1.0000    0.65890   0.82080   0.61800   Biso      1.000     C          0.541175  
         C12       1.0000    0.34110   0.17920   0.38200   Biso      1.000     C          0.541169  
         C13       1.0000    0.16810   0.09030   0.45360   Biso      1.000     C          -0.130197           
         C14       1.0000    0.18890   0.99600   0.47300   Biso      1.000     C          -0.183568           
         C15       1.0000    0.72310   0.38200   0.43880   Biso      1.000     C          0.5413140000000001  
         C16       1.0000    0.62170   0.45360   0.45610   Biso      1.000     C          -0.12945  
         C17       1.0000    0.42750   0.46520   0.43200   Biso      1.000     C          0.294917  
         C18       1.0000    0.66190   0.47300   0.53100   Biso      1.000     C          -0.18432  
         C19       1.0000    0.16190   0.43880   0.17920   Biso      1.000     C          0.541022  
         C20       1.0000    0.07780   0.45610   0.09030   Biso      1.000     C          -0.128723           
         C21       1.0000    0.85950   0.43200   0.10280   Biso      1.000     C          0.294042  
         C22       1.0000    0.19290   0.53100   0.99600   Biso      1.000     C          -0.183339           
         C23       1.0000    0.14050   0.56800   0.89720   Biso      1.000     C          0.294042  
         C24       1.0000    0.80710   0.46900   0.00400   Biso      1.000     C          -0.183336           
         Fe1       1.0000    0.89790   0.68520   0.58590   Biso      1.000     Fe          0.9237350000000001  
         Fe2       1.0000    0.21270   0.72890   0.68520   Biso      1.000     Fe          0.923256  
         Fe3       1.0000    0.48380   0.58590   0.72890   Biso      1.000     Fe          0.9237049999999999  
         Fe4       1.0000    0.10210   0.31480   0.41410   Biso      1.000     Fe          0.923761  
         Fe5       1.0000    0.51620   0.41410   0.27110   Biso      1.000     Fe          0.923817  
         Fe6       1.0000    0.78730   0.27110   0.31480   Biso      1.000     Fe          0.9231889999999999  
         H1        1.0000    0.36560   0.55990   0.98050   Biso      1.000     H          0.129634  
         H2        1.0000    0.80570   0.45960   0.55990   Biso      1.000     H          0.130273  
         H3        1.0000    0.19430   0.54040   0.44010   Biso      1.000     H          0.130269  
         H4        1.0000    0.63440   0.44010   0.01950   Biso      1.000     H          0.129638  
         H5        1.0000    0.34610   0.98050   0.45960   Biso      1.000     H          0.13027   
         H6        1.0000    0.65390   0.01950   0.54040   Biso      1.000     H          0.130273  
         O1        1.0000    0.32150   0.27160   0.35560   Biso      1.000     O          -0.518996           
         O2        1.0000    0.35460   0.43430   0.37470   Biso      1.000     O          -0.520189           
         O3        1.0000    0.90570   0.38610   0.47650   Biso      1.000     O          -0.536547           
         O4        1.0000    0.67710   0.35560   0.37280   Biso      1.000     O          -0.519169           
         O5        1.0000    0.04990   0.37280   0.27160   Biso      1.000     O          -0.519604           
         O6        1.0000    0.92030   0.19100   0.43430   Biso      1.000     O          -0.520894           
         O7        1.0000    0.51960   0.13740   0.38610   Biso      1.000     O          -0.536733           
         O8        1.0000    0.27070   0.62530   0.80900   Biso      1.000     O          -0.520173           
         O9        1.0000    0.32290   0.64440   0.62720   Biso      1.000     O          -0.519189           
         O10       1.0000    0.95010   0.62720   0.72840   Biso      1.000     O          -0.519594           
         O11       1.0000    0.64540   0.56570   0.62530   Biso      1.000     O          -0.5201600000000001           
         O12       1.0000    0.09430   0.61390   0.52350   Biso      1.000     O          -0.536558           
         O13       1.0000    0.07970   0.80900   0.56570   Biso      1.000     O          -0.520904           
         O14       1.0000    0.48040   0.86260   0.61390   Biso      1.000     O          -0.5367350000000001           
         O15       1.0000    0.67850   0.72840   0.64440   Biso      1.000     O          -0.518987           
         O16       1.0000    0.38220   0.47650   0.13740   Biso      1.000     O          -0.53665  
         O17       1.0000    0.61780   0.52350   0.86260   Biso      1.000     O          -0.536643           
         O18       1.0000    0.72930   0.37470   0.19100   Biso      1.000     O          -0.520183 