
##########################################################################
#               Crystallographic Information Format file
#               Produced by PyCifRW module
#
#  This is a CIF file.  CIF has been adopted by the International
#  Union of Crystallography as the standard for data archiving and
#  transmission.
#
#  For information on this file format, follow the CIF links at
#  http://www.iucr.org
##########################################################################

data_image0

_cell_length_a                          6.8538
_cell_length_b                          15.1576
_cell_length_c                          15.1576
_cell_angle_alpha                       62.23
_cell_angle_beta                        81.3311
_cell_angle_gamma                       98.6689
_symmetry_space_group_name_H-M          'P 1'
_symmetry_int_tables_number             1
loop_
  _symmetry_equiv_pos_as_xyz
         'x, y, z' 
loop_
  _atom_site_label
  _atom_site_occupancy
  _atom_site_fract_x
  _atom_site_fract_y
  _atom_site_fract_z
  _atom_site_thermal_displace_type
  _atom_site_B_iso_or_equiv
  _atom_site_type_symbol
  _atom_site_charge
         C1        1.0000    0.97190   0.10590   0.46560   Biso      1.000     C          0.307882  
         C2        1.0000    0.91670   0.53430   0.92050   Biso      1.000     C          -0.148112           
         C3        1.0000    0.84400   0.56020   0.82790   Biso      1.000     C          0.560513  
         C4        1.0000    0.32480   0.52200   0.46370   Biso      1.000     C          -0.184609           
         C5        1.0000    0.56250   0.53440   0.57150   Biso      1.000     C          0.307584  
         C6        1.0000    0.38240   0.54520   0.53430   Biso      1.000     C          -0.145382           
         C7        1.0000    0.28380   0.61190   0.56020   Biso      1.000     C          0.554837  
         C8        1.0000    0.80280   0.01430   0.52200   Biso      1.000     C          -0.181036           
         C9        1.0000    0.02810   0.89410   0.53440   Biso      1.000     C          0.307946  
         C10       1.0000    0.83720   0.92050   0.54520   Biso      1.000     C          -0.147424           
         C11       1.0000    0.67190   0.82790   0.61190   Biso      1.000     C          0.561334  
         C12       1.0000    0.32810   0.17210   0.38810   Biso      1.000     C          0.561175  
         C13       1.0000    0.16280   0.07950   0.45480   Biso      1.000     C          -0.147423           
         C14       1.0000    0.19720   0.98570   0.47800   Biso      1.000     C          -0.181141           
         C15       1.0000    0.71620   0.38810   0.43980   Biso      1.000     C          0.555194  
         C16       1.0000    0.61760   0.45480   0.46570   Biso      1.000     C          -0.145683           
         C17       1.0000    0.43750   0.46560   0.42850   Biso      1.000     C          0.30787   
         C18       1.0000    0.67520   0.47800   0.53630   Biso      1.000     C          -0.184319           
         C19       1.0000    0.15600   0.43980   0.17210   Biso      1.000     C          0.560323  
         C20       1.0000    0.08330   0.46570   0.07950   Biso      1.000     C          -0.147906           
         C21       1.0000    0.86600   0.42850   0.10590   Biso      1.000     C          0.30764   
         C22       1.0000    0.21150   0.53630   0.98570   Biso      1.000     C          -0.179748           
         C23       1.0000    0.13400   0.57150   0.89410   Biso      1.000     C          0.307837  
         C24       1.0000    0.78850   0.46370   0.01430   Biso      1.000     C          -0.179613           
         Fe1       1.0000    0.88810   0.68400   0.58800   Biso      1.000     Fe          0.960822  
         Fe2       1.0000    0.20410   0.72800   0.68400   Biso      1.000     Fe          0.952746  
         Fe3       1.0000    0.47610   0.58800   0.72800   Biso      1.000     Fe          0.962991  
         Fe4       1.0000    0.11190   0.31600   0.41200   Biso      1.000     Fe          0.962178  
         Fe5       1.0000    0.52390   0.41200   0.27200   Biso      1.000     Fe          0.963782  
         Fe6       1.0000    0.79590   0.27200   0.31600   Biso      1.000     Fe          0.951069  
         H1        1.0000    0.37890   0.56170   0.98020   Biso      1.000     H          0.143519  
         H2        1.0000    0.81720   0.45810   0.56170   Biso      1.000     H          0.143697  
         H3        1.0000    0.18280   0.54190   0.43830   Biso      1.000     H          0.143692  
         H4        1.0000    0.62110   0.43830   0.01980   Biso      1.000     H          0.143528  
         H5        1.0000    0.35910   0.98020   0.45810   Biso      1.000     H          0.14411   
         H6        1.0000    0.64090   0.01980   0.54190   Biso      1.000     H          0.144105  
         O1        1.0000    0.31920   0.26640   0.35430   Biso      1.000     O          -0.531167           
         O2        1.0000    0.36140   0.43040   0.37680   Biso      1.000     O          -0.529476           
         O3        1.0000    0.90510   0.38040   0.47110   Biso      1.000     O          -0.582901           
         O4        1.0000    0.67350   0.35430   0.37930   Biso      1.000     O          -0.531132           
         O5        1.0000    0.05280   0.37930   0.26640   Biso      1.000     O          -0.530095           
         O6        1.0000    0.93100   0.19280   0.43040   Biso      1.000     O          -0.526213           
         O7        1.0000    0.52470   0.14850   0.38040   Biso      1.000     O          -0.580549           
         O8        1.0000    0.26180   0.62320   0.80720   Biso      1.000     O          -0.527038           
         O9        1.0000    0.32650   0.64570   0.62070   Biso      1.000     O          -0.53136  
         O10       1.0000    0.94720   0.62070   0.73360   Biso      1.000     O          -0.529742           
         O11       1.0000    0.63860   0.56960   0.62320   Biso      1.000     O          -0.528762           
         O12       1.0000    0.09490   0.61960   0.52890   Biso      1.000     O          -0.583077           
         O13       1.0000    0.06900   0.80720   0.56960   Biso      1.000     O          -0.526319           
         O14       1.0000    0.47530   0.85150   0.61960   Biso      1.000     O          -0.580435           
         O15       1.0000    0.68080   0.73360   0.64570   Biso      1.000     O          -0.531204           
         O16       1.0000    0.37620   0.47110   0.14850   Biso      1.000     O          -0.584002           
         O17       1.0000    0.62380   0.52890   0.85150   Biso      1.000     O          -0.583916           
         O18       1.0000    0.73820   0.37680   0.19280   Biso      1.000     O          -0.52659 