
##########################################################################
#               Crystallographic Information Format file
#               Produced by PyCifRW module
#
#  This is a CIF file.  CIF has been adopted by the International
#  Union of Crystallography as the standard for data archiving and
#  transmission.
#
#  For information on this file format, follow the CIF links at
#  http://www.iucr.org
##########################################################################

data_image0

_cell_length_a                          7.9073
_cell_length_b                          12.2996
_cell_length_c                          12.2996
_cell_angle_alpha                       90
_cell_angle_beta                        90
_cell_angle_gamma                       90
_symmetry_space_group_name_H-M          'P 1'
_symmetry_int_tables_number             1
loop_
  _symmetry_equiv_pos_as_xyz
         'x, y, z' 
loop_
  _atom_site_label
  _atom_site_occupancy
  _atom_site_fract_x
  _atom_site_fract_y
  _atom_site_fract_z
  _atom_site_thermal_displace_type
  _atom_site_B_iso_or_equiv
  _atom_site_type_symbol
  _atom_site_charge
         C1        1.0000    0.11620   0.50950   0.98860   Biso      1.000     C          0.332802  
         C2        1.0000    0.55660   0.20920   0.22200   Biso      1.000     C          0.0156    
         C3        1.0000    0.66540   0.38380   0.18410   Biso      1.000     C          0.023548  
         C4        1.0000    0.61670   0.49140   0.13340   Biso      1.000     C          -0.316458           
         C5        1.0000    0.61620   0.49050   0.01140   Biso      1.000     C          0.332802  
         C6        1.0000    0.76670   0.85450   0.83440   Biso      1.000     C          0.342142  
         C7        1.0000    0.94970   0.88320   0.82360   Biso      1.000     C          -0.30647199999999997          
         C8        1.0000    0.05660   0.79080   0.77800   Biso      1.000     C          0.015599000000000002          
         C9        1.0000    0.16540   0.61620   0.81590   Biso      1.000     C          0.023547  
         C10       1.0000    0.11670   0.50860   0.86660   Biso      1.000     C          -0.316458           
         C11       1.0000    0.01670   0.83440   0.14550   Biso      1.000     C          0.34213899999999997           
         C12       1.0000    0.19970   0.82360   0.11680   Biso      1.000     C          -0.30647199999999997          
         C13       1.0000    0.30660   0.77800   0.20920   Biso      1.000     C          0.015599000000000002          
         C14       1.0000    0.41540   0.81590   0.38380   Biso      1.000     C          0.023549  
         C15       1.0000    0.36670   0.86660   0.49140   Biso      1.000     C          -0.316458           
         C16       1.0000    0.36620   0.98860   0.49050   Biso      1.000     C          0.332801  
         C17       1.0000    0.51670   0.16560   0.85450   Biso      1.000     C          0.342143  
         C18       1.0000    0.69970   0.17640   0.88320   Biso      1.000     C          -0.30647199999999997          
         C19       1.0000    0.80660   0.22200   0.79080   Biso      1.000     C          0.0156    
         C20       1.0000    0.91540   0.18410   0.61620   Biso      1.000     C          0.02355   
         C21       1.0000    0.86670   0.13340   0.50860   Biso      1.000     C          -0.316458           
         C22       1.0000    0.86620   0.01140   0.50950   Biso      1.000     C          0.332802  
         C23       1.0000    0.44970   0.11680   0.17640   Biso      1.000     C          -0.306473           
         C24       1.0000    0.26670   0.14550   0.16560   Biso      1.000     C          0.342142  
         Cu1       1.0000    0.34757   0.32355   0.01540   Biso      1.000     Cu          0.6519050000000001  
         Cu2       1.0000    0.84757   0.67645   0.98460   Biso      1.000     Cu          0.651908  
         Cu3       1.0000    0.09757   0.98460   0.32355   Biso      1.000     Cu          0.6519050000000001  
         Cu4       1.0000    0.59757   0.01540   0.67645   Biso      1.000     Cu          0.651914  
         H1        1.0000    0.52890   0.83840   0.36410   Biso      1.000     H          0.081786  
         H2        1.0000    0.17300   0.81460   0.77060   Biso      1.000     H          0.084397  
         H3        1.0000    0.99330   0.90350   0.89440   Biso      1.000     H          0.143597  
         H4        1.0000    0.96020   0.94590   0.77620   Biso      1.000     H          0.145534  
         H5        1.0000    0.50480   0.51140   0.15880   Biso      1.000     H          0.142974  
         H6        1.0000    0.77890   0.36410   0.16160   Biso      1.000     H          0.081788  
         H7        1.0000    0.51520   0.22930   0.29340   Biso      1.000     H          0.078924  
         H8        1.0000    0.01520   0.77070   0.70660   Biso      1.000     H          0.078924  
         H9        1.0000    0.67300   0.18540   0.22940   Biso      1.000     H          0.084398  
         H10       1.0000    0.49330   0.09650   0.10560   Biso      1.000     H          0.143598  
         H11       1.0000    0.46020   0.05410   0.22380   Biso      1.000     H          0.145535  
         H12       1.0000    0.41470   0.73730   0.39030   Biso      1.000     H          0.09728200000000001           
         H13       1.0000    0.66470   0.39030   0.26270   Biso      1.000     H          0.09728300000000001           
         H14       1.0000    0.16470   0.60970   0.73730   Biso      1.000     H          0.09728400000000001           
         H15       1.0000    0.69500   0.54670   0.15830   Biso      1.000     H          0.13994700000000002           
         H16       1.0000    0.19500   0.45330   0.84170   Biso      1.000     H          0.13994700000000002           
         H17       1.0000    0.44500   0.84170   0.54670   Biso      1.000     H          0.139949  
         H18       1.0000    0.27890   0.63590   0.83840   Biso      1.000     H          0.081788  
         H19       1.0000    0.71020   0.22380   0.94590   Biso      1.000     H          0.145534  
         H20       1.0000    0.74330   0.10560   0.90350   Biso      1.000     H          0.143597  
         H21       1.0000    0.92300   0.22940   0.81460   Biso      1.000     H          0.084396  
         H22       1.0000    0.76520   0.29340   0.77070   Biso      1.000     H          0.078922  
         H23       1.0000    0.91470   0.26270   0.60970   Biso      1.000     H          0.09728300000000001           
         H24       1.0000    0.02890   0.16160   0.63590   Biso      1.000     H          0.081786  
         H25       1.0000    0.25480   0.84120   0.51140   Biso      1.000     H          0.142974  
         H26       1.0000    0.75480   0.15880   0.48860   Biso      1.000     H          0.142974  
         H27       1.0000    0.26520   0.70660   0.22930   Biso      1.000     H          0.078922  
         H28       1.0000    0.42300   0.77060   0.18540   Biso      1.000     H          0.084397  
         H29       1.0000    0.24330   0.89440   0.09650   Biso      1.000     H          0.143597  
         H30       1.0000    0.21020   0.77620   0.05410   Biso      1.000     H          0.145534  
         H31       1.0000    0.00480   0.48860   0.84120   Biso      1.000     H          0.142975  
         H32       1.0000    0.94500   0.15830   0.45330   Biso      1.000     H          0.139949  
         N1        1.0000    0.74390   0.82710   0.14700   Biso      1.000     N          -0.091798           
         N2        1.0000    0.88640   0.78860   0.09530   Biso      1.000     N          -0.287864           
         N3        1.0000    0.26600   0.04680   0.42180   Biso      1.000     N          -0.278582           
         N4        1.0000    0.29570   0.15230   0.44350   Biso      1.000     N          -0.066558           
         N5        1.0000    0.40710   0.15730   0.52160   Biso      1.000     N          -0.095914           
         N6        1.0000    0.45130   0.05470   0.55100   Biso      1.000     N          -0.26647600000000005          
         N7        1.0000    0.46060   0.10110   0.77460   Biso      1.000     N          -0.267807           
         N8        1.0000    0.38640   0.21140   0.90470   Biso      1.000     N          -0.287869           
         N9        1.0000    0.24390   0.17290   0.85300   Biso      1.000     N          -0.091795           
         N10       1.0000    0.76600   0.95320   0.57820   Biso      1.000     N          -0.278584           
         N11       1.0000    0.79570   0.84770   0.55650   Biso      1.000     N          -0.066558           
         N12       1.0000    0.90710   0.84270   0.47840   Biso      1.000     N          -0.095915           
         N13       1.0000    0.95130   0.94530   0.44900   Biso      1.000     N          -0.266475           
         N14       1.0000    0.78870   0.89130   0.22590   Biso      1.000     N          -0.059561           
         N15       1.0000    0.28870   0.10870   0.77410   Biso      1.000     N          -0.059537           
         N16       1.0000    0.96060   0.89890   0.22540   Biso      1.000     N          -0.267778           
         N17       1.0000    0.21060   0.22540   0.10110   Biso      1.000     N          -0.2678   
         N18       1.0000    0.15710   0.47840   0.15730   Biso      1.000     N          -0.095958           
         N19       1.0000    0.03870   0.22590   0.10870   Biso      1.000     N          -0.059567999999999996         
         N20       1.0000    0.99390   0.14700   0.17290   Biso      1.000     N          -0.091767           
         N21       1.0000    0.13640   0.09530   0.21140   Biso      1.000     N          -0.287865           
         N22       1.0000    0.51600   0.42180   0.95320   Biso      1.000     N          -0.27859  
         N23       1.0000    0.20130   0.44900   0.05470   Biso      1.000     N          -0.266467           
         N24       1.0000    0.65710   0.52160   0.84270   Biso      1.000     N          -0.095957           
         N25       1.0000    0.54570   0.44350   0.84770   Biso      1.000     N          -0.066511           
         N26       1.0000    0.71060   0.77460   0.89890   Biso      1.000     N          -0.26779899999999995          
         N27       1.0000    0.53870   0.77410   0.89130   Biso      1.000     N          -0.059569000000000004         
         N28       1.0000    0.49390   0.85300   0.82710   Biso      1.000     N          -0.091767           
         N29       1.0000    0.63640   0.90470   0.78860   Biso      1.000     N          -0.28786799999999996          
         N30       1.0000    0.01600   0.57820   0.04680   Biso      1.000     N          -0.278589           
         N31       1.0000    0.04570   0.55650   0.15230   Biso      1.000     N          -0.066514           
         N32       1.0000    0.70130   0.55100   0.94530   Biso      1.000     N          -0.266467           
         O1        1.0000    0.29910   0.84870   0.30090   Biso      1.000     O          -0.24298000000000003          
         O2        1.0000    0.54910   0.30090   0.15130   Biso      1.000     O          -0.242979           
         O3        1.0000    0.04910   0.69910   0.84870   Biso      1.000     O          -0.242979           
         O4        1.0000    0.79910   0.15130   0.69910   Biso      1.000     O          -0.242983 