
##########################################################################
#               Crystallographic Information Format file
#               Produced by PyCifRW module
#
#  This is a CIF file.  CIF has been adopted by the International
#  Union of Crystallography as the standard for data archiving and
#  transmission.
#
#  For information on this file format, follow the CIF links at
#  http://www.iucr.org
##########################################################################

data_image0

_cell_length_a                          7.9025
_cell_length_b                          12.355
_cell_length_c                          12.355
_cell_angle_alpha                       90
_cell_angle_beta                        90
_cell_angle_gamma                       90
_symmetry_space_group_name_H-M          'P 1'
_symmetry_int_tables_number             1
loop_
  _symmetry_equiv_pos_as_xyz
         'x, y, z' 
loop_
  _atom_site_label
  _atom_site_occupancy
  _atom_site_fract_x
  _atom_site_fract_y
  _atom_site_fract_z
  _atom_site_thermal_displace_type
  _atom_site_B_iso_or_equiv
  _atom_site_type_symbol
  _atom_site_charge
         C1        1.0000    0.20090   0.51070   0.98770   Biso      1.000     C          0.336382  
         C2        1.0000    0.75680   0.20830   0.22290   Biso      1.000     C          0.017774  
         C3        1.0000    0.64700   0.38450   0.18250   Biso      1.000     C          0.024772  
         C4        1.0000    0.69870   0.49070   0.13280   Biso      1.000     C          -0.316257           
         C5        1.0000    0.70090   0.48930   0.01230   Biso      1.000     C          0.336382  
         C6        1.0000    0.54590   0.85420   0.83500   Biso      1.000     C          0.338393  
         C7        1.0000    0.36280   0.88200   0.82290   Biso      1.000     C          -0.307037           
         C8        1.0000    0.25680   0.79170   0.77710   Biso      1.000     C          0.017764  
         C9        1.0000    0.14700   0.61550   0.81750   Biso      1.000     C          0.024777  
         C10       1.0000    0.19870   0.50930   0.86720   Biso      1.000     C          -0.316264           
         C11       1.0000    0.29590   0.83500   0.14580   Biso      1.000     C          0.337568  
         C12       1.0000    0.11280   0.82290   0.11800   Biso      1.000     C          -0.306886           
         C13       1.0000    0.00680   0.77710   0.20830   Biso      1.000     C          0.017774  
         C14       1.0000    0.89700   0.81750   0.38450   Biso      1.000     C          0.024824000000000002          
         C15       1.0000    0.94870   0.86720   0.49070   Biso      1.000     C          -0.316292           
         C16       1.0000    0.95090   0.98770   0.48930   Biso      1.000     C          0.336454  
         C17       1.0000    0.79590   0.16500   0.85420   Biso      1.000     C          0.33760500000000004           
         C18       1.0000    0.61280   0.17710   0.88200   Biso      1.000     C          -0.306872           
         C19       1.0000    0.50680   0.22290   0.79170   Biso      1.000     C          0.017783  
         C20       1.0000    0.39700   0.18250   0.61550   Biso      1.000     C          0.024801  
         C21       1.0000    0.44870   0.13280   0.50930   Biso      1.000     C          -0.316285           
         C22       1.0000    0.45090   0.01230   0.51070   Biso      1.000     C          0.336426  
         C23       1.0000    0.86280   0.11800   0.17710   Biso      1.000     C          -0.307021           
         C24       1.0000    0.04590   0.14580   0.16500   Biso      1.000     C          0.33843   
         Cu1       1.0000    0.96648   0.32318   0.01525   Biso      1.000     Cu          0.644871  
         Cu2       1.0000    0.46648   0.67682   0.98475   Biso      1.000     Cu          0.64475   
         Cu3       1.0000    0.21648   0.98475   0.32318   Biso      1.000     Cu          0.644648  
         Cu4       1.0000    0.71648   0.01525   0.67682   Biso      1.000     Cu          0.644628  
         H1        1.0000    0.89500   0.73920   0.39120   Biso      1.000     H          0.098014  
         H2        1.0000    0.29840   0.77190   0.70600   Biso      1.000     H          0.080772  
         H3        1.0000    0.35280   0.94460   0.77600   Biso      1.000     H          0.146796  
         H4        1.0000    0.31810   0.90190   0.89330   Biso      1.000     H          0.14441600000000002           
         H5        1.0000    0.62110   0.54650   0.15700   Biso      1.000     H          0.14065999999999998           
         H6        1.0000    0.64500   0.39120   0.26080   Biso      1.000     H          0.098151  
         H7        1.0000    0.64040   0.18460   0.23020   Biso      1.000     H          0.087242  
         H8        1.0000    0.14040   0.81540   0.76980   Biso      1.000     H          0.08723099999999999           
         H9        1.0000    0.79840   0.22810   0.29400   Biso      1.000     H          0.080795  
         H10       1.0000    0.85280   0.05540   0.22400   Biso      1.000     H          0.146813  
         H11       1.0000    0.81810   0.09810   0.10670   Biso      1.000     H          0.144422  
         H12       1.0000    0.78410   0.84160   0.36530   Biso      1.000     H          0.08169   
         H13       1.0000    0.53410   0.36530   0.15840   Biso      1.000     H          0.081751  
         H14       1.0000    0.03410   0.63470   0.84160   Biso      1.000     H          0.08173899999999999           
         H15       1.0000    0.81070   0.50950   0.15880   Biso      1.000     H          0.143044  
         H16       1.0000    0.31070   0.49050   0.84120   Biso      1.000     H          0.143036  
         H17       1.0000    0.06070   0.84120   0.50950   Biso      1.000     H          0.142996  
         H18       1.0000    0.14500   0.60880   0.73920   Biso      1.000     H          0.09808   
         H19       1.0000    0.56810   0.10670   0.90190   Biso      1.000     H          0.144432  
         H20       1.0000    0.60280   0.22400   0.94460   Biso      1.000     H          0.146793  
         H21       1.0000    0.54840   0.29400   0.77190   Biso      1.000     H          0.080801  
         H22       1.0000    0.39040   0.23020   0.81540   Biso      1.000     H          0.087233  
         H23       1.0000    0.28410   0.15840   0.63470   Biso      1.000     H          0.081722  
         H24       1.0000    0.39500   0.26080   0.60880   Biso      1.000     H          0.098105  
         H25       1.0000    0.87110   0.84300   0.54650   Biso      1.000     H          0.14059000000000002           
         H26       1.0000    0.37110   0.15700   0.45350   Biso      1.000     H          0.14061700000000002           
         H27       1.0000    0.89040   0.76980   0.18460   Biso      1.000     H          0.08720800000000001           
         H28       1.0000    0.04840   0.70600   0.22810   Biso      1.000     H          0.080761  
         H29       1.0000    0.10280   0.77600   0.05540   Biso      1.000     H          0.146776  
         H30       1.0000    0.06810   0.89330   0.09810   Biso      1.000     H          0.14439000000000002           
         H31       1.0000    0.12110   0.45350   0.84300   Biso      1.000     H          0.140647  
         H32       1.0000    0.56070   0.15880   0.49050   Biso      1.000     H          0.143016  
         N1        1.0000    0.57020   0.82740   0.14600   Biso      1.000     N          -0.09159199999999999          
         N2        1.0000    0.42750   0.78960   0.09520   Biso      1.000     N          -0.28481799999999996          
         N3        1.0000    0.04740   0.04570   0.42220   Biso      1.000     N          -0.270575           
         N4        1.0000    0.01660   0.15090   0.44400   Biso      1.000     N          -0.073405           
         N5        1.0000    0.90780   0.15680   0.52240   Biso      1.000     N          -0.087125           
         N6        1.0000    0.86400   0.05350   0.55180   Biso      1.000     N          -0.275569           
         N7        1.0000    0.85370   0.10070   0.77460   Biso      1.000     N          -0.258741           
         N8        1.0000    0.92750   0.21040   0.90480   Biso      1.000     N          -0.284788           
         N9        1.0000    0.07020   0.17260   0.85400   Biso      1.000     N          -0.09156399999999999          
         N10       1.0000    0.54740   0.95430   0.57780   Biso      1.000     N          -0.270559           
         N11       1.0000    0.51660   0.84910   0.55600   Biso      1.000     N          -0.073385           
         N12       1.0000    0.40780   0.84320   0.47760   Biso      1.000     N          -0.08712  
         N13       1.0000    0.36400   0.94650   0.44820   Biso      1.000     N          -0.275566           
         N14       1.0000    0.52510   0.89190   0.22500   Biso      1.000     N          -0.065109           
         N15       1.0000    0.02510   0.10810   0.77500   Biso      1.000     N          -0.065012           
         N16       1.0000    0.35370   0.89930   0.22540   Biso      1.000     N          -0.258765           
         N17       1.0000    0.10370   0.22540   0.10070   Biso      1.000     N          -0.259761           
         N18       1.0000    0.15780   0.47760   0.15680   Biso      1.000     N          -0.08705700000000001          
         N19       1.0000    0.27510   0.22500   0.10810   Biso      1.000     N          -0.064589           
         N20       1.0000    0.32020   0.14600   0.17260   Biso      1.000     N          -0.091021           
         N21       1.0000    0.17750   0.09520   0.21040   Biso      1.000     N          -0.286138           
         N22       1.0000    0.79740   0.42220   0.95430   Biso      1.000     N          -0.27029899999999996          
         N23       1.0000    0.11400   0.44820   0.05350   Biso      1.000     N          -0.276094           
         N24       1.0000    0.65780   0.52240   0.84320   Biso      1.000     N          -0.086995           
         N25       1.0000    0.76660   0.44400   0.84910   Biso      1.000     N          -0.073685           
         N26       1.0000    0.60370   0.77460   0.89930   Biso      1.000     N          -0.259807           
         N27       1.0000    0.77510   0.77500   0.89190   Biso      1.000     N          -0.064601           
         N28       1.0000    0.82020   0.85400   0.82740   Biso      1.000     N          -0.09109500000000001          
         N29       1.0000    0.67750   0.90480   0.78960   Biso      1.000     N          -0.286155           
         N30       1.0000    0.29740   0.57780   0.04570   Biso      1.000     N          -0.270322           
         N31       1.0000    0.26660   0.55600   0.15090   Biso      1.000     N          -0.073649           
         N32       1.0000    0.61400   0.55180   0.94650   Biso      1.000     N          -0.27610100000000004          
         O1        1.0000    0.01500   0.84870   0.30100   Biso      1.000     O          -0.25343000000000004          
         O2        1.0000    0.76500   0.30100   0.15130   Biso      1.000     O          -0.253366           
         O3        1.0000    0.26500   0.69900   0.84870   Biso      1.000     O          -0.253377           
         O4        1.0000    0.51500   0.15130   0.69900   Biso      1.000     O          -0.253393 