
##########################################################################
#               Crystallographic Information Format file
#               Produced by PyCifRW module
#
#  This is a CIF file.  CIF has been adopted by the International
#  Union of Crystallography as the standard for data archiving and
#  transmission.
#
#  For information on this file format, follow the CIF links at
#  http://www.iucr.org
##########################################################################

data_image0

_cell_length_a                          11.5288
_cell_length_b                          12.3565
_cell_length_c                          21.861
_cell_angle_alpha                       90
_cell_angle_beta                        90
_cell_angle_gamma                       117.808
_symmetry_space_group_name_H-M          'P 1'
_symmetry_int_tables_number             1
loop_
  _symmetry_equiv_pos_as_xyz
         'x, y, z' 
loop_
  _atom_site_label
  _atom_site_occupancy
  _atom_site_fract_x
  _atom_site_fract_y
  _atom_site_fract_z
  _atom_site_thermal_displace_type
  _atom_site_B_iso_or_equiv
  _atom_site_type_symbol
  _atom_site_charge
         C1        1.0000    0.69800   0.70640   0.01230   Biso      1.000     C          -0.139773           
         C2        1.0000    0.58350   0.57600   0.57180   Biso      1.000     C          -0.116421           
         C3        1.0000    0.68300   0.68340   0.55100   Biso      1.000     C          -0.017876           
         C4        1.0000    0.77360   0.77560   0.59520   Biso      1.000     C          0.664027  
         C5        1.0000    0.00840   0.70640   0.51230   Biso      1.000     C          -0.140824           
         C6        1.0000    0.01110   0.62460   0.55240   Biso      1.000     C          -0.094914           
         C7        1.0000    0.00580   0.51260   0.53250   Biso      1.000     C          0.088104  
         C8        1.0000    0.00750   0.42400   0.57180   Biso      1.000     C          -0.117172           
         C9        1.0000    0.49320   0.48740   0.53250   Biso      1.000     C          0.08704   
         C10       1.0000    0.99800   0.22440   0.59520   Biso      1.000     C          0.661211  
         C11       1.0000    0.98890   0.37540   0.05240   Biso      1.000     C          -0.094932           
         C12       1.0000    0.99420   0.48740   0.03250   Biso      1.000     C          0.088106  
         C13       1.0000    0.99250   0.57600   0.07180   Biso      1.000     C          -0.117172           
         C14       1.0000    0.00040   0.68340   0.05100   Biso      1.000     C          -0.016226           
         C15       1.0000    0.00200   0.77560   0.09520   Biso      1.000     C          0.661211  
         C16       1.0000    0.30200   0.29360   0.98770   Biso      1.000     C          -0.139773           
         C17       1.0000    0.38650   0.37540   0.94760   Biso      1.000     C          -0.094456           
         C18       1.0000    0.99160   0.29360   0.01230   Biso      1.000     C          -0.140807           
         C19       1.0000    0.49320   0.48740   0.96750   Biso      1.000     C          0.087038  
         C20       1.0000    0.38650   0.37540   0.55240   Biso      1.000     C          -0.094476           
         C21       1.0000    0.22640   0.22440   0.09520   Biso      1.000     C          0.664027  
         C22       1.0000    0.99160   0.29360   0.48770   Biso      1.000     C          -0.140824           
         C23       1.0000    0.98890   0.37540   0.44760   Biso      1.000     C          -0.094914           
         C24       1.0000    0.99420   0.48740   0.46750   Biso      1.000     C          0.088103  
         C25       1.0000    0.99250   0.57600   0.42820   Biso      1.000     C          -0.117172           
         C26       1.0000    0.00040   0.68340   0.44900   Biso      1.000     C          -0.016226           
         C27       1.0000    0.00200   0.77560   0.40480   Biso      1.000     C          0.66121   
         C28       1.0000    0.00840   0.70640   0.98770   Biso      1.000     C          -0.140825           
         C29       1.0000    0.30200   0.29360   0.51230   Biso      1.000     C          -0.139754           
         C30       1.0000    0.01110   0.62460   0.94760   Biso      1.000     C          -0.094914           
         C31       1.0000    0.00750   0.42400   0.92820   Biso      1.000     C          -0.117171           
         C32       1.0000    0.99960   0.31660   0.94900   Biso      1.000     C          -0.016228           
         C33       1.0000    0.99800   0.22440   0.90480   Biso      1.000     C          0.66121   
         C34       1.0000    0.61350   0.62460   0.05240   Biso      1.000     C          -0.094456           
         C35       1.0000    0.50680   0.51260   0.03250   Biso      1.000     C          0.087037  
         C36       1.0000    0.41650   0.42400   0.07180   Biso      1.000     C          -0.116422           
         C37       1.0000    0.31700   0.31660   0.05100   Biso      1.000     C          -0.017877           
         C38       1.0000    0.00580   0.51260   0.96750   Biso      1.000     C          0.088103  
         C39       1.0000    0.58350   0.57600   0.92820   Biso      1.000     C          -0.116422           
         C40       1.0000    0.99960   0.31660   0.55100   Biso      1.000     C          -0.016226           
         C41       1.0000    0.77360   0.77560   0.90480   Biso      1.000     C          0.664027  
         C42       1.0000    0.69800   0.70640   0.48770   Biso      1.000     C          -0.139774           
         C43       1.0000    0.61350   0.62460   0.44760   Biso      1.000     C          -0.094456           
         C44       1.0000    0.50680   0.51260   0.46750   Biso      1.000     C          0.087037  
         C45       1.0000    0.41650   0.42400   0.42820   Biso      1.000     C          -0.116421           
         C46       1.0000    0.31700   0.31660   0.44900   Biso      1.000     C          -0.017879           
         C47       1.0000    0.22640   0.22440   0.40480   Biso      1.000     C          0.664027  
         C48       1.0000    0.68300   0.68340   0.94900   Biso      1.000     C          -0.017877           
         H1        1.0000    0.23310   0.22120   0.52670   Biso      1.000     H          0.118933  
         H2        1.0000    0.57550   0.56120   0.61370   Biso      1.000     H          0.126071  
         H3        1.0000    0.01190   0.77880   0.52670   Biso      1.000     H          0.119132  
         H4        1.0000    0.01430   0.43880   0.61370   Biso      1.000     H          0.125947  
         H5        1.0000    0.57550   0.56120   0.88630   Biso      1.000     H          0.126071  
         H6        1.0000    0.98570   0.56120   0.11370   Biso      1.000     H          0.125947  
         H7        1.0000    0.23310   0.22120   0.97330   Biso      1.000     H          0.118934  
         H8        1.0000    0.42450   0.43880   0.11370   Biso      1.000     H          0.126071  
         H9        1.0000    0.42450   0.43880   0.38630   Biso      1.000     H          0.126071  
         H10       1.0000    0.98810   0.22120   0.02670   Biso      1.000     H          0.119131  
         H11       1.0000    0.76690   0.77880   0.02670   Biso      1.000     H          0.118935  
         H12       1.0000    0.76690   0.77880   0.47330   Biso      1.000     H          0.118935  
         H13       1.0000    0.01190   0.77880   0.97330   Biso      1.000     H          0.119132  
         H14       1.0000    0.01430   0.43880   0.88630   Biso      1.000     H          0.125947  
         H15       1.0000    0.84690   0.81160   0.25000   Biso      1.000     H          0.470564  
         H16       1.0000    0.96470   0.81160   0.75000   Biso      1.000     H          0.47107   
         H17       1.0000    0.03530   0.18840   0.25000   Biso      1.000     H          0.47107   
         H18       1.0000    0.80670   0.00000   0.65430   Biso      1.000     H          0.454985  
         H19       1.0000    0.15310   0.18840   0.75000   Biso      1.000     H          0.470564  
         H20       1.0000    0.80670   0.00000   0.84570   Biso      1.000     H          0.454985  
         H21       1.0000    0.19330   0.00000   0.34570   Biso      1.000     H          0.454985  
         H22       1.0000    0.98810   0.22120   0.47330   Biso      1.000     H          0.119132  
         H23       1.0000    0.98570   0.56120   0.38630   Biso      1.000     H          0.125946  
         H24       1.0000    0.19330   0.00000   0.15430   Biso      1.000     H          0.454985  
         O1        1.0000    0.03190   0.78080   0.63700   Biso      1.000     O          -0.775841           
         O2        1.0000    0.51910   0.65100   0.15620   Biso      1.000     O          -0.611651           
         O3        1.0000    0.74890   0.78080   0.13700   Biso      1.000     O          -0.775443           
         O4        1.0000    0.13320   0.12680   0.07650   Biso      1.000     O          -0.620555           
         O5        1.0000    0.25090   0.25120   0.15150   Biso      1.000     O          -0.75397  
         O6        1.0000    0.33170   0.43420   0.65770   Biso      1.000     O          -0.612833           
         O7        1.0000    0.25110   0.21920   0.63700   Biso      1.000     O          -0.775444           
         O8        1.0000    0.86680   0.87320   0.57650   Biso      1.000     O          -0.620555           
         O9        1.0000    0.74910   0.74880   0.65150   Biso      1.000     O          -0.75397  
         O10       1.0000    0.89750   0.56580   0.65770   Biso      1.000     O          -0.612135           
         O11       1.0000    0.66830   0.56580   0.15770   Biso      1.000     O          -0.612833           
         O12       1.0000    0.13190   0.65100   0.65620   Biso      1.000     O          -0.611824           
         O13       1.0000    0.48090   0.34900   0.65620   Biso      1.000     O          -0.611651           
         O14       1.0000    0.00030   0.25120   0.84850   Biso      1.000     O          -0.753117           
         O15       1.0000    0.00640   0.87320   0.42350   Biso      1.000     O          -0.619237           
         O16       1.0000    0.03190   0.78080   0.86300   Biso      1.000     O          -0.775841           
         O17       1.0000    0.13190   0.65100   0.84380   Biso      1.000     O          -0.611824           
         O18       1.0000    0.89750   0.56580   0.84230   Biso      1.000     O          -0.612134           
         O19       1.0000    0.99970   0.74880   0.34850   Biso      1.000     O          -0.753117           
         O20       1.0000    0.96810   0.21920   0.36300   Biso      1.000     O          -0.775841           
         O21       1.0000    0.96350   0.87980   0.75000   Biso      1.000     O          -1.163397           
         O22       1.0000    0.03650   0.12020   0.25000   Biso      1.000     O          -1.163397           
         O23       1.0000    0.84030   0.00000   0.68890   Biso      1.000     O          -1.209853           
         O24       1.0000    0.15970   0.00000   0.18890   Biso      1.000     O          -1.209854           
         O25       1.0000    0.84030   0.00000   0.81110   Biso      1.000     O          -1.209854           
         O26       1.0000    0.15970   0.00000   0.31110   Biso      1.000     O          -1.209853           
         O27       1.0000    0.10250   0.43420   0.34230   Biso      1.000     O          -0.612135           
         O28       1.0000    0.99360   0.12680   0.57650   Biso      1.000     O          -0.619238           
         O29       1.0000    0.86810   0.34900   0.34380   Biso      1.000     O          -0.611825           
         O30       1.0000    0.99360   0.12680   0.92350   Biso      1.000     O          -0.619238           
         O31       1.0000    0.00030   0.25120   0.65150   Biso      1.000     O          -0.753117           
         O32       1.0000    0.08370   0.12020   0.75000   Biso      1.000     O          -1.162237           
         O33       1.0000    0.86810   0.34900   0.15620   Biso      1.000     O          -0.611824           
         O34       1.0000    0.10250   0.43420   0.15770   Biso      1.000     O          -0.612134           
         O35       1.0000    0.25090   0.25120   0.34850   Biso      1.000     O          -0.75397  
         O36       1.0000    0.13320   0.12680   0.42350   Biso      1.000     O          -0.620555           
         O37       1.0000    0.51910   0.65100   0.34380   Biso      1.000     O          -0.611651           
         O38       1.0000    0.66830   0.56580   0.34230   Biso      1.000     O          -0.612833           
         O39       1.0000    0.74910   0.74880   0.84850   Biso      1.000     O          -0.75397  
         O40       1.0000    0.74890   0.78080   0.36300   Biso      1.000     O          -0.775443           
         O41       1.0000    0.25110   0.21920   0.86300   Biso      1.000     O          -0.775443           
         O42       1.0000    0.48090   0.34900   0.84380   Biso      1.000     O          -0.611651           
         O43       1.0000    0.33170   0.43420   0.84230   Biso      1.000     O          -0.612833           
         O44       1.0000    0.99970   0.74880   0.15150   Biso      1.000     O          -0.753117           
         O45       1.0000    0.00640   0.87320   0.07650   Biso      1.000     O          -0.619237           
         O46       1.0000    0.96810   0.21920   0.13700   Biso      1.000     O          -0.775841           
         O47       1.0000    0.86680   0.87320   0.92350   Biso      1.000     O          -0.620555           
         O48       1.0000    0.91630   0.87980   0.25000   Biso      1.000     O          -1.162237           
         Pr1       1.0000    0.91054   0.18688   0.75000   Biso      1.000     Pr          2.226685  
         Pr2       1.0000    0.04248   0.00000   0.84657   Biso      1.000     Pr          2.260045  
         Pr3       1.0000    0.95752   0.00000   0.15343   Biso      1.000     Pr          2.260044  
         Pr4       1.0000    0.04248   0.00000   0.65343   Biso      1.000     Pr          2.260044  
         Pr5       1.0000    0.27634   0.18688   0.25000   Biso      1.000     Pr          2.227262  
         Pr6       1.0000    0.72366   0.81312   0.75000   Biso      1.000     Pr          2.227262  
         Pr7       1.0000    0.08946   0.81312   0.25000   Biso      1.000     Pr          2.226686  
         Pr8       1.0000    0.95752   0.00000   0.34657   Biso      1.000     Pr          2.260044  
         S1        1.0000    0.36024   0.34036   0.86795   Biso      1.000     S          1.226665  
         S2        1.0000    0.98012   0.34036   0.13205   Biso      1.000     S          1.226995  
         S3        1.0000    0.01988   0.65964   0.63205   Biso      1.000     S          1.226994  
         S4        1.0000    0.36024   0.34036   0.63205   Biso      1.000     S          1.226667  
         S5        1.0000    0.63976   0.65964   0.13205   Biso      1.000     S          1.226665  
         S6        1.0000    0.98012   0.34036   0.36795   Biso      1.000     S          1.226994  
         S7        1.0000    0.63976   0.65964   0.36795   Biso      1.000     S          1.226665  
         S8        1.0000    0.01988   0.65964   0.86795   Biso      1.000     S          1.226994 