
##########################################################################
#               Crystallographic Information Format file
#               Produced by PyCifRW module
#
#  This is a CIF file.  CIF has been adopted by the International
#  Union of Crystallography as the standard for data archiving and
#  transmission.
#
#  For information on this file format, follow the CIF links at
#  http://www.iucr.org
##########################################################################

data_image0

_cell_length_a                          8.806
_cell_length_b                          15.6031
_cell_length_c                          19.2382
_cell_angle_alpha                       67.852
_cell_angle_beta                        76.7696
_cell_angle_gamma                       73.6092
_symmetry_space_group_name_H-M          'P 1'
_symmetry_int_tables_number             1
loop_
  _symmetry_equiv_pos_as_xyz
         'x, y, z' 
loop_
  _atom_site_label
  _atom_site_occupancy
  _atom_site_fract_x
  _atom_site_fract_y
  _atom_site_fract_z
  _atom_site_thermal_displace_type
  _atom_site_B_iso_or_equiv
  _atom_site_type_symbol
  _atom_site_charge
         C1        1.0000    0.87793   0.91919   0.86755   Biso      1.000     C          -0.092578           
         C2        1.0000    0.94664   0.36333   0.50499   Biso      1.000     C          -0.148243           
         C3        1.0000    0.79838   0.38601   0.54683   Biso      1.000     C          0.075125  
         C4        1.0000    0.66467   0.58081   0.63245   Biso      1.000     C          -0.092844           
         C5        1.0000    0.67212   0.52506   0.58950   Biso      1.000     C          -0.143689           
         C6        1.0000    0.78217   0.43934   0.59912   Biso      1.000     C          0.088221  
         C7        1.0000    0.88068   0.40790   0.65494   Biso      1.000     C          -0.156519           
         C8        1.0000    0.86932   0.46166   0.69990   Biso      1.000     C          -0.085898           
         C9        1.0000    0.76417   0.54969   0.68757   Biso      1.000     C          -0.030385           
         C10       1.0000    0.76654   0.61142   0.73110   Biso      1.000     C          0.626242  
         C11       1.0000    0.56482   0.13867   0.96369   Biso      1.000     C          -0.151792           
         C12       1.0000    0.48180   0.24236   0.12144   Biso      1.000     C          0.678065  
         C13       1.0000    0.64526   0.92405   0.72703   Biso      1.000     C          0.668725  
         C14       1.0000    0.59607   0.02096   0.73430   Biso      1.000     C          -0.03301  
         C15       1.0000    0.70239   0.08060   0.70902   Biso      1.000     C          -0.091847           
         C16       1.0000    0.65472   0.17027   0.71529   Biso      1.000     C          -0.150453           
         C17       1.0000    0.49966   0.20168   0.74740   Biso      1.000     C          0.073413  
         C18       1.0000    0.39485   0.14090   0.77400   Biso      1.000     C          -0.162215           
         C19       1.0000    0.96070   0.32051   0.45209   Biso      1.000     C          -0.086935           
         C20       1.0000    0.44178   0.05134   0.76710   Biso      1.000     C          -0.097174           
         C21       1.0000    0.82937   0.29848   0.43978   Biso      1.000     C          -0.039315           
         C22       1.0000    0.66718   0.36133   0.53631   Biso      1.000     C          -0.153445           
         C23       1.0000    0.81496   0.13667   0.99501   Biso      1.000     C          -0.149697           
         C24       1.0000    0.73122   0.11399   0.95317   Biso      1.000     C          0.076407  
         C25       1.0000    0.48355   0.18248   0.01682   Biso      1.000     C          -0.092835           
         C26       1.0000    0.78668   0.97494   0.91050   Biso      1.000     C          -0.142995           
         C27       1.0000    0.82063   0.06066   0.90088   Biso      1.000     C          0.086737  
         C28       1.0000    0.94352   0.09210   0.84506   Biso      1.000     C          -0.155509           
         C29       1.0000    0.03088   0.03834   0.80010   Biso      1.000     C          -0.086583           
         C30       1.0000    0.00143   0.95031   0.81243   Biso      1.000     C          -0.030867           
         C31       1.0000    0.10906   0.88858   0.76890   Biso      1.000     C          0.627392  
         C32       1.0000    0.26022   0.44866   0.73290   Biso      1.000     C          -0.097696           
         C33       1.0000    0.30975   0.35910   0.72600   Biso      1.000     C          -0.161583           
         C34       1.0000    0.44874   0.29832   0.75260   Biso      1.000     C          0.073046  
         C35       1.0000    0.54028   0.32973   0.78471   Biso      1.000     C          -0.149795           
         C36       1.0000    0.49201   0.41940   0.79098   Biso      1.000     C          -0.093147           
         C37       1.0000    0.35133   0.47904   0.76570   Biso      1.000     C          -0.03178  
         C38       1.0000    0.29634   0.57595   0.77297   Biso      1.000     C          0.668391  
         C39       1.0000    0.84560   0.25764   0.37856   Biso      1.000     C          0.678076  
         C40       1.0000    0.68285   0.31752   0.48318   Biso      1.000     C          -0.092853           
         C41       1.0000    0.23346   0.38858   0.26890   Biso      1.000     C          0.626242  
         C42       1.0000    0.23583   0.45031   0.31243   Biso      1.000     C          -0.030387           
         C43       1.0000    0.13068   0.53834   0.30010   Biso      1.000     C          -0.085897           
         C44       1.0000    0.17937   0.93934   0.09912   Biso      1.000     C          0.086736  
         C45       1.0000    0.21332   0.02506   0.08950   Biso      1.000     C          -0.142994           
         C46       1.0000    0.12207   0.08081   0.13245   Biso      1.000     C          -0.092578           
         C47       1.0000    0.26878   0.88601   0.04683   Biso      1.000     C          0.076407  
         C48       1.0000    0.18504   0.86333   0.00499   Biso      1.000     C          -0.149697           
         C49       1.0000    0.26670   0.82051   0.95209   Biso      1.000     C          -0.087601           
         C50       1.0000    0.43237   0.79848   0.93978   Biso      1.000     C          -0.039756           
         C51       1.0000    0.51645   0.81752   0.98318   Biso      1.000     C          -0.092836           
         C52       1.0000    0.43518   0.86133   0.03631   Biso      1.000     C          -0.15179  
         C53       1.0000    0.51820   0.75764   0.87856   Biso      1.000     C          0.678065  
         C54       1.0000    0.35474   0.07595   0.27297   Biso      1.000     C          0.668725  
         C55       1.0000    0.40393   0.97904   0.26570   Biso      1.000     C          -0.03301  
         C56       1.0000    0.29761   0.91940   0.29098   Biso      1.000     C          -0.091847           
         C57       1.0000    0.34528   0.82973   0.28471   Biso      1.000     C          -0.150453           
         C58       1.0000    0.50034   0.79832   0.25260   Biso      1.000     C          0.073413  
         C59       1.0000    0.60515   0.85910   0.22600   Biso      1.000     C          -0.162215           
         C60       1.0000    0.55822   0.94866   0.23290   Biso      1.000     C          -0.097174           
         C61       1.0000    0.05648   0.90790   0.15494   Biso      1.000     C          -0.155509           
         C62       1.0000    0.96912   0.96166   0.19990   Biso      1.000     C          -0.086583           
         C63       1.0000    0.99857   0.04969   0.18757   Biso      1.000     C          -0.030867           
         C64       1.0000    0.89094   0.11142   0.23110   Biso      1.000     C          0.627392  
         C65       1.0000    0.11932   0.59210   0.34506   Biso      1.000     C          -0.156521           
         C66       1.0000    0.21783   0.56066   0.40088   Biso      1.000     C          0.088223  
         C67       1.0000    0.32788   0.47494   0.41050   Biso      1.000     C          -0.143689           
         C68       1.0000    0.33533   0.41919   0.36755   Biso      1.000     C          -0.092843           
         C69       1.0000    0.20162   0.61399   0.45317   Biso      1.000     C          0.075125  
         C70       1.0000    0.05336   0.63667   0.49501   Biso      1.000     C          -0.148243           
         C71       1.0000    0.03930   0.67949   0.54791   Biso      1.000     C          -0.086935           
         C72       1.0000    0.17063   0.70152   0.56022   Biso      1.000     C          -0.039315           
         C73       1.0000    0.73330   0.17949   0.04791   Biso      1.000     C          -0.087601           
         C74       1.0000    0.31715   0.68248   0.51682   Biso      1.000     C          -0.092853           
         C75       1.0000    0.15440   0.74236   0.62144   Biso      1.000     C          0.678076  
         C76       1.0000    0.70366   0.42405   0.22703   Biso      1.000     C          0.668391  
         C77       1.0000    0.64867   0.52096   0.23430   Biso      1.000     C          -0.031782           
         C78       1.0000    0.50799   0.58060   0.20902   Biso      1.000     C          -0.093147           
         C79       1.0000    0.45972   0.67027   0.21529   Biso      1.000     C          -0.149795           
         C80       1.0000    0.55126   0.70168   0.24740   Biso      1.000     C          0.073046  
         C81       1.0000    0.69025   0.64090   0.27400   Biso      1.000     C          -0.161584           
         C82       1.0000    0.73978   0.55134   0.26710   Biso      1.000     C          -0.097692           
         C83       1.0000    0.33282   0.63867   0.46369   Biso      1.000     C          -0.153445           
         C84       1.0000    0.56763   0.20152   0.06022   Biso      1.000     C          -0.039756           
         Gd1       1.0000    0.90772   0.72371   0.78112   Biso      1.000     Gd          2.112227  
         Gd2       1.0000    0.41255   0.77629   0.71888   Biso      1.000     Gd          2.112448  
         Gd3       1.0000    0.09228   0.27629   0.21888   Biso      1.000     Gd          2.112227  
         Gd4       1.0000    0.58745   0.22371   0.28112   Biso      1.000     Gd          2.112448  
         H1        1.0000    0.63170   0.98910   0.21530   Biso      1.000     H          0.11281   
         H2        1.0000    0.50640   0.12560   0.93440   Biso      1.000     H          0.113714  
         H3        1.0000    0.37010   0.19940   0.02340   Biso      1.000     H          0.114862  
         H4        1.0000    0.79150   0.19410   0.07630   Biso      1.000     H          0.114824  
         H5        1.0000    0.92850   0.12260   0.98700   Biso      1.000     H          0.112929  
         H6        1.0000    0.85570   0.85970   0.87590   Biso      1.000     H          0.091905  
         H7        1.0000    0.70000   0.95410   0.94690   Biso      1.000     H          0.10987   
         H8        1.0000    0.96770   0.15070   0.83770   Biso      1.000     H          0.114331  
         H9        1.0000    0.11140   0.06180   0.76060   Biso      1.000     H          0.120128  
         H10       1.0000    0.16390   0.48910   0.71530   Biso      1.000     H          0.112475  
         H11       1.0000    0.55560   0.44010   0.81270   Biso      1.000     H          0.120305  
         H12       1.0000    0.80840   0.05990   0.68730   Biso      1.000     H          0.120135  
         H13       1.0000    0.56640   0.37440   0.56560   Biso      1.000     H          0.115061  
         H14       1.0000    0.59290   0.30060   0.47660   Biso      1.000     H          0.115198  
         H15       1.0000    0.06190   0.30590   0.42370   Biso      1.000     H          0.114501  
         H16       1.0000    0.03810   0.37740   0.51300   Biso      1.000     H          0.112336  
         H17       1.0000    0.59130   0.64030   0.62410   Biso      1.000     H          0.092062  
         H18       1.0000    0.60100   0.54590   0.55310   Biso      1.000     H          0.110174  
         H19       1.0000    0.95610   0.34930   0.66230   Biso      1.000     H          0.11433   
         H20       1.0000    0.93380   0.43820   0.73940   Biso      1.000     H          0.119931  
         H21       1.0000    0.63660   0.28920   0.80240   Biso      1.000     H          0.108392  
         H22       1.0000    0.72820   0.21080   0.69760   Biso      1.000     H          0.108414  
         H23       1.0000    0.24790   0.33920   0.70280   Biso      1.000     H          0.108411  
         H24       1.0000    0.36830   0.01090   0.78470   Biso      1.000     H          0.11281   
         H25       1.0000    0.28990   0.16080   0.79720   Biso      1.000     H          0.108576  
         H26       1.0000    0.27180   0.78920   0.30240   Biso      1.000     H          0.108414  
         H27       1.0000    0.19160   0.94010   0.31270   Biso      1.000     H          0.120135  
         H28       1.0000    0.49360   0.87440   0.06560   Biso      1.000     H          0.113714  
         H29       1.0000    0.62990   0.80060   0.97660   Biso      1.000     H          0.114862  
         H30       1.0000    0.20850   0.80590   0.92370   Biso      1.000     H          0.114824  
         H31       1.0000    0.07150   0.87740   0.01300   Biso      1.000     H          0.112929  
         H32       1.0000    0.14430   0.14030   0.12410   Biso      1.000     H          0.091905  
         H33       1.0000    0.30000   0.04590   0.05310   Biso      1.000     H          0.10987   
         H34       1.0000    0.03230   0.84930   0.16230   Biso      1.000     H          0.114331  
         H35       1.0000    0.88860   0.93820   0.23940   Biso      1.000     H          0.120128  
         H36       1.0000    0.83610   0.51090   0.28470   Biso      1.000     H          0.112475  
         H37       1.0000    0.71010   0.83920   0.20280   Biso      1.000     H          0.108576  
         H38       1.0000    0.06620   0.56180   0.26060   Biso      1.000     H          0.119931  
         H39       1.0000    0.36340   0.71080   0.19760   Biso      1.000     H          0.108392  
         H40       1.0000    0.44440   0.55990   0.18730   Biso      1.000     H          0.120305  
         H41       1.0000    0.43360   0.62560   0.43440   Biso      1.000     H          0.115061  
         H42       1.0000    0.40710   0.69940   0.52340   Biso      1.000     H          0.115198  
         H43       1.0000    0.93810   0.69410   0.57630   Biso      1.000     H          0.114501  
         H44       1.0000    0.96190   0.62260   0.48700   Biso      1.000     H          0.112336  
         H45       1.0000    0.40870   0.35970   0.37590   Biso      1.000     H          0.092062  
         H46       1.0000    0.39900   0.45410   0.44690   Biso      1.000     H          0.110174  
         H47       1.0000    0.04390   0.65070   0.33770   Biso      1.000     H          0.114331  
         H48       1.0000    0.75210   0.66080   0.29720   Biso      1.000     H          0.108412  
         O1        1.0000    0.01529   0.76227   0.65517   Biso      1.000     O          -0.652534           
         O2        1.0000    0.27904   0.75288   0.63616   Biso      1.000     O          -0.716246           
         O3        1.0000    0.85118   0.38972   0.22232   Biso      1.000     O          -0.694112           
         O4        1.0000    0.59883   0.38350   0.22668   Biso      1.000     O          -0.659585           
         O5        1.0000    0.46322   0.11028   0.27768   Biso      1.000     O          -0.694659           
         O6        1.0000    0.90159   0.19685   0.21289   Biso      1.000     O          -0.764299           
         O7        1.0000    0.43273   0.73773   0.84483   Biso      1.000     O          -0.652596           
         O8        1.0000    0.66808   0.74712   0.86384   Biso      1.000     O          -0.715507           
         O9        1.0000    0.31133   0.30315   0.28711   Biso      1.000     O          -0.763948           
         O10       1.0000    0.78339   0.07886   0.28140   Biso      1.000     O          -0.614258           
         O11       1.0000    0.14365   0.42114   0.21860   Biso      1.000     O          -0.614104           
         O12       1.0000    0.21661   0.92114   0.71860   Biso      1.000     O          -0.614258           
         O13       1.0000    0.53678   0.88972   0.72232   Biso      1.000     O          -0.694659           
         O14       1.0000    0.33192   0.25288   0.13616   Biso      1.000     O          -0.715507           
         O15       1.0000    0.56727   0.26227   0.15517   Biso      1.000     O          -0.652596           
         O16       1.0000    0.09841   0.80315   0.78711   Biso      1.000     O          -0.764299           
         O17       1.0000    0.40117   0.61650   0.77332   Biso      1.000     O          -0.659585           
         O18       1.0000    0.14882   0.61028   0.77768   Biso      1.000     O          -0.694112           
         O19       1.0000    0.72096   0.24712   0.36384   Biso      1.000     O          -0.716246           
         O20       1.0000    0.98471   0.23773   0.34483   Biso      1.000     O          -0.652534           
         O21       1.0000    0.68867   0.69685   0.71289   Biso      1.000     O          -0.763948           
         O22       1.0000    0.85635   0.57886   0.78140   Biso      1.000     O          -0.614104           
         O23       1.0000    0.79099   0.88350   0.72668   Biso      1.000     O          -0.659303           
         O24       1.0000    0.20901   0.11650   0.27332   Biso      1.000     O          -0.659303 