
##########################################################################
#               Crystallographic Information Format file
#               Produced by PyCifRW module
#
#  This is a CIF file.  CIF has been adopted by the International
#  Union of Crystallography as the standard for data archiving and
#  transmission.
#
#  For information on this file format, follow the CIF links at
#  http://www.iucr.org
##########################################################################

data_image0

_cell_length_a                          19.2347
_cell_length_b                          13.2563
_cell_length_c                          16.7559
_cell_angle_alpha                       90
_cell_angle_beta                        123.909
_cell_angle_gamma                       90
_symmetry_space_group_name_H-M          'P 1'
_symmetry_int_tables_number             1
loop_
  _symmetry_equiv_pos_as_xyz
         'x, y, z' 
loop_
  _atom_site_label
  _atom_site_occupancy
  _atom_site_fract_x
  _atom_site_fract_y
  _atom_site_fract_z
  _atom_site_thermal_displace_type
  _atom_site_B_iso_or_equiv
  _atom_site_type_symbol
  _atom_site_charge
         C1        1.0000    0.50000   0.33540   0.75000   Biso      1.000     C          -0.235484           
         C2        1.0000    0.94010   0.85550   0.92710   Biso      1.000     C          -0.209927           
         C3        1.0000    0.05990   0.85550   0.57290   Biso      1.000     C          -0.209927           
         C4        1.0000    0.62920   0.70520   0.13220   Biso      1.000     C          0.054438  
         C5        1.0000    0.55990   0.64450   0.07290   Biso      1.000     C          -0.209926           
         C6        1.0000    0.12920   0.79480   0.63220   Biso      1.000     C          0.054436  
         C7        1.0000    0.49220   0.70830   0.04100   Biso      1.000     C          0.039504  
         C8        1.0000    0.72070   0.68360   0.19020   Biso      1.000     C          0.635871  
         C9        1.0000    0.40120   0.69470   0.97550   Biso      1.000     C          0.581436  
         C10       1.0000    0.65820   0.70190   0.35110   Biso      1.000     C          0.563406  
         C11       1.0000    0.56840   0.72780   0.29410   Biso      1.000     C          0.078973  
         C12       1.0000    0.00780   0.79170   0.95900   Biso      1.000     C          0.039507  
         C13       1.0000    0.77930   0.81640   0.80980   Biso      1.000     C          0.635871  
         C14       1.0000    0.09880   0.80530   0.02450   Biso      1.000     C          0.581437  
         C15       1.0000    0.84180   0.79810   0.64890   Biso      1.000     C          0.563406  
         C16       1.0000    0.93160   0.77220   0.70590   Biso      1.000     C          0.078975  
         C17       1.0000    0.43160   0.27220   0.70590   Biso      1.000     C          0.078988  
         C18       1.0000    0.34180   0.29810   0.64890   Biso      1.000     C          0.563406  
         C19       1.0000    0.59880   0.30530   0.02450   Biso      1.000     C          0.581437  
         C20       1.0000    0.27930   0.31640   0.80980   Biso      1.000     C          0.635872  
         C21       1.0000    0.50780   0.29170   0.95900   Biso      1.000     C          0.039503  
         C22       1.0000    0.44010   0.35550   0.92710   Biso      1.000     C          -0.209925           
         C23       1.0000    0.37080   0.29480   0.86780   Biso      1.000     C          0.054438  
         C24       1.0000    0.87080   0.20520   0.36780   Biso      1.000     C          0.054436  
         C25       1.0000    0.94010   0.14450   0.42710   Biso      1.000     C          -0.209928           
         C26       1.0000    0.00780   0.20830   0.45900   Biso      1.000     C          0.039507  
         C27       1.0000    0.77930   0.18360   0.30980   Biso      1.000     C          0.635872  
         C28       1.0000    0.09880   0.19470   0.52450   Biso      1.000     C          0.581438  
         C29       1.0000    0.84180   0.20190   0.14890   Biso      1.000     C          0.563406  
         C30       1.0000    0.22070   0.81640   0.69020   Biso      1.000     C          0.635872  
         C31       1.0000    0.99220   0.79170   0.54100   Biso      1.000     C          0.039507  
         C32       1.0000    0.15820   0.79810   0.85110   Biso      1.000     C          0.563406  
         C33       1.0000    0.00000   0.83540   0.75000   Biso      1.000     C          -0.235475           
         C34       1.0000    0.43160   0.72780   0.20590   Biso      1.000     C          0.078978  
         C35       1.0000    0.50000   0.66460   0.25000   Biso      1.000     C          -0.235466           
         C36       1.0000    0.34180   0.70190   0.14890   Biso      1.000     C          0.563406  
         C37       1.0000    0.00000   0.16460   0.25000   Biso      1.000     C          -0.235484           
         C38       1.0000    0.56840   0.27220   0.79410   Biso      1.000     C          0.078983  
         C39       1.0000    0.65820   0.29810   0.85110   Biso      1.000     C          0.563406  
         C40       1.0000    0.40120   0.30530   0.47550   Biso      1.000     C          0.581437  
         C41       1.0000    0.72070   0.31640   0.69020   Biso      1.000     C          0.635872  
         C42       1.0000    0.49220   0.29170   0.54100   Biso      1.000     C          0.039505  
         C43       1.0000    0.59880   0.69470   0.52450   Biso      1.000     C          0.581437  
         C44       1.0000    0.90120   0.80530   0.47550   Biso      1.000     C          0.581437  
         C45       1.0000    0.05990   0.14450   0.07290   Biso      1.000     C          -0.209927           
         C46       1.0000    0.12920   0.20520   0.13220   Biso      1.000     C          0.054436  
         C47       1.0000    0.99220   0.20830   0.04100   Biso      1.000     C          0.039507  
         C48       1.0000    0.06840   0.77220   0.79410   Biso      1.000     C          0.078987  
         C49       1.0000    0.87080   0.79480   0.86780   Biso      1.000     C          0.054436  
         C50       1.0000    0.37080   0.70520   0.36780   Biso      1.000     C          0.054438  
         C51       1.0000    0.44010   0.64450   0.42710   Biso      1.000     C          -0.209927           
         C52       1.0000    0.55990   0.35550   0.57290   Biso      1.000     C          -0.209925           
         C53       1.0000    0.62920   0.29480   0.63220   Biso      1.000     C          0.054436  
         C54       1.0000    0.50780   0.70830   0.45900   Biso      1.000     C          0.039505  
         C55       1.0000    0.27930   0.68360   0.30980   Biso      1.000     C          0.635872  
         C56       1.0000    0.06840   0.22780   0.29410   Biso      1.000     C          0.078984  
         C57       1.0000    0.15820   0.20190   0.35110   Biso      1.000     C          0.563406  
         C58       1.0000    0.90120   0.19470   0.97550   Biso      1.000     C          0.581437  
         C59       1.0000    0.22070   0.18360   0.19020   Biso      1.000     C          0.635872  
         C60       1.0000    0.93160   0.22780   0.20590   Biso      1.000     C          0.078989  
         Ce1       1.0000    0.27832   0.92268   0.23198   Biso      1.000     Ce          1.445988  
         Ce2       1.0000    0.77832   0.57732   0.73198   Biso      1.000     Ce          1.445982  
         Ce3       1.0000    0.27832   0.07732   0.73198   Biso      1.000     Ce          1.445976  
         Ce4       1.0000    0.22168   0.42268   0.26802   Biso      1.000     Ce          1.445972  
         Ce5       1.0000    0.22168   0.57732   0.76802   Biso      1.000     Ce          1.445984  
         Ce6       1.0000    0.72168   0.92268   0.26802   Biso      1.000     Ce          1.445988  
         Ce7       1.0000    0.77832   0.42268   0.23198   Biso      1.000     Ce          1.445974  
         Ce8       1.0000    0.72168   0.07732   0.76802   Biso      1.000     Ce          1.445974  
         H1        1.0000    0.50720   0.14810   0.92840   Biso      1.000     H          0.274181  
         H2        1.0000    0.00000   0.90560   0.75000   Biso      1.000     H          0.18073   
         H3        1.0000    0.50000   0.59440   0.25000   Biso      1.000     H          0.180729  
         H4        1.0000    0.00000   0.09440   0.25000   Biso      1.000     H          0.18073   
         H5        1.0000    0.55920   0.42320   0.55800   Biso      1.000     H          0.164376  
         H6        1.0000    0.57360   0.12370   0.79710   Biso      1.000     H          0.197064  
         H7        1.0000    0.00720   0.64810   0.92840   Biso      1.000     H          0.274183  
         H8        1.0000    0.49280   0.14810   0.57160   Biso      1.000     H          0.274182  
         H9        1.0000    0.92640   0.62370   0.70290   Biso      1.000     H          0.197065  
         H10       1.0000    0.42640   0.12370   0.70290   Biso      1.000     H          0.19707   
         H11       1.0000    0.05920   0.92320   0.55800   Biso      1.000     H          0.164377  
         H12       1.0000    0.94080   0.92320   0.94200   Biso      1.000     H          0.164377  
         H13       1.0000    0.18990   0.73430   0.06570   Biso      1.000     H          0.421197  
         H14       1.0000    0.99280   0.64810   0.57160   Biso      1.000     H          0.274183  
         H15       1.0000    0.81010   0.73430   0.43430   Biso      1.000     H          0.421198  
         H16       1.0000    0.44080   0.42320   0.94200   Biso      1.000     H          0.164377  
         H17       1.0000    0.68990   0.23430   0.06570   Biso      1.000     H          0.421197  
         H18       1.0000    0.31010   0.23430   0.43430   Biso      1.000     H          0.421198  
         H19       1.0000    0.07360   0.62370   0.79710   Biso      1.000     H          0.197071  
         H20       1.0000    0.50000   0.40560   0.75000   Biso      1.000     H          0.18073   
         H21       1.0000    0.42640   0.87630   0.20290   Biso      1.000     H          0.197072  
         H22       1.0000    0.68990   0.76570   0.56570   Biso      1.000     H          0.421198  
         H23       1.0000    0.81010   0.26570   0.93430   Biso      1.000     H          0.421197  
         H24       1.0000    0.57360   0.87630   0.29710   Biso      1.000     H          0.197067  
         H25       1.0000    0.94080   0.07680   0.44200   Biso      1.000     H          0.164377  
         H26       1.0000    0.00720   0.35190   0.42840   Biso      1.000     H          0.274182  
         H27       1.0000    0.50720   0.85190   0.42840   Biso      1.000     H          0.274181  
         H28       1.0000    0.55920   0.57680   0.05800   Biso      1.000     H          0.164377  
         H29       1.0000    0.31010   0.76570   0.93430   Biso      1.000     H          0.421198  
         H30       1.0000    0.44080   0.57680   0.44200   Biso      1.000     H          0.164377  
         H31       1.0000    0.18990   0.26570   0.56570   Biso      1.000     H          0.421197  
         H32       1.0000    0.92640   0.37630   0.20290   Biso      1.000     H          0.197069  
         H33       1.0000    0.07360   0.37630   0.29710   Biso      1.000     H          0.197063  
         H34       1.0000    0.49280   0.85190   0.07160   Biso      1.000     H          0.274182  
         H35       1.0000    0.05920   0.07680   0.05800   Biso      1.000     H          0.164376  
         H36       1.0000    0.99280   0.35190   0.07160   Biso      1.000     H          0.274182  
         N1        1.0000    0.95800   0.32380   0.22300   Biso      1.000     N          -0.173889           
         N2        1.0000    0.45800   0.17620   0.72300   Biso      1.000     N          -0.173889           
         N3        1.0000    0.97679   0.29980   0.41880   Biso      1.000     N          -0.150181           
         N4        1.0000    0.54200   0.17620   0.77700   Biso      1.000     N          -0.173838           
         N5        1.0000    0.02321   0.70020   0.58120   Biso      1.000     N          -0.150181           
         N6        1.0000    0.52321   0.20020   0.58120   Biso      1.000     N          -0.15018  
         N7        1.0000    0.60629   0.20070   0.63710   Biso      1.000     N          -0.360793           
         N8        1.0000    0.10629   0.70070   0.63710   Biso      1.000     N          -0.360794           
         N9        1.0000    0.89371   0.29930   0.36290   Biso      1.000     N          -0.360791           
         N10       1.0000    0.60629   0.79930   0.13710   Biso      1.000     N          -0.360814           
         N11       1.0000    0.04200   0.32380   0.27700   Biso      1.000     N          -0.173838           
         N12       1.0000    0.39371   0.20070   0.86290   Biso      1.000     N          -0.360809           
         N13       1.0000    0.04200   0.67620   0.77700   Biso      1.000     N          -0.17389  
         N14       1.0000    0.02321   0.29980   0.08120   Biso      1.000     N          -0.150181           
         N15       1.0000    0.10629   0.29930   0.13710   Biso      1.000     N          -0.360792           
         N16       1.0000    0.39371   0.79930   0.36290   Biso      1.000     N          -0.360811           
         N17       1.0000    0.47679   0.79980   0.41880   Biso      1.000     N          -0.150163           
         N18       1.0000    0.45800   0.82380   0.22300   Biso      1.000     N          -0.17389  
         N19       1.0000    0.95800   0.67620   0.72300   Biso      1.000     N          -0.173838           
         N20       1.0000    0.97679   0.70020   0.91880   Biso      1.000     N          -0.150181           
         N21       1.0000    0.89371   0.70070   0.86290   Biso      1.000     N          -0.360795           
         N22       1.0000    0.54200   0.82380   0.27700   Biso      1.000     N          -0.173839           
         N23       1.0000    0.52321   0.79980   0.08120   Biso      1.000     N          -0.150163           
         N24       1.0000    0.47679   0.20020   0.91880   Biso      1.000     N          -0.150162           
         O1        1.0000    0.76909   0.24332   0.73560   Biso      1.000     O          -0.606395           
         O2        1.0000    0.74354   0.40386   0.68890   Biso      1.000     O          -0.645018           
         O3        1.0000    0.36840   0.38260   0.43041   Biso      1.000     O          -0.544637           
         O4        1.0000    0.13944   0.72500   0.02790   Biso      1.000     O          -0.530842           
         O5        1.0000    0.36056   0.77500   0.97210   Biso      1.000     O          -0.530842           
         O6        1.0000    0.70838   0.22950   0.86040   Biso      1.000     O          -0.648141           
         O7        1.0000    0.68045   0.38420   0.88470   Biso      1.000     O          -0.559271           
         O8        1.0000    0.36840   0.61740   0.93041   Biso      1.000     O          -0.544638           
         O9        1.0000    0.74354   0.59614   0.18890   Biso      1.000     O          -0.645016           
         O10       1.0000    0.76909   0.75668   0.23560   Biso      1.000     O          -0.606396           
         O11       1.0000    0.18045   0.11580   0.38470   Biso      1.000     O          -0.559271           
         O12       1.0000    0.20838   0.27050   0.36040   Biso      1.000     O          -0.648141           
         O13       1.0000    0.86056   0.27500   0.97210   Biso      1.000     O          -0.530842           
         O14       1.0000    0.86840   0.11740   0.93041   Biso      1.000     O          -0.544637           
         O15       1.0000    0.24354   0.09614   0.18890   Biso      1.000     O          -0.645018           
         O16       1.0000    0.26909   0.25668   0.23560   Biso      1.000     O          -0.606396           
         O17       1.0000    0.36056   0.22500   0.47210   Biso      1.000     O          -0.530842           
         O18       1.0000    0.70838   0.77050   0.36040   Biso      1.000     O          -0.648142           
         O19       1.0000    0.13160   0.11740   0.56959   Biso      1.000     O          -0.544638           
         O20       1.0000    0.73091   0.25668   0.26440   Biso      1.000     O          -0.606396           
         O21       1.0000    0.73091   0.74332   0.76440   Biso      1.000     O          -0.606396           
         O22       1.0000    0.79162   0.72950   0.63960   Biso      1.000     O          -0.648141           
         O23       1.0000    0.81955   0.88420   0.61530   Biso      1.000     O          -0.559271           
         O24       1.0000    0.31955   0.61580   0.11530   Biso      1.000     O          -0.559272           
         O25       1.0000    0.29162   0.77050   0.13960   Biso      1.000     O          -0.648141           
         O26       1.0000    0.63944   0.77500   0.52790   Biso      1.000     O          -0.530843           
         O27       1.0000    0.63160   0.61740   0.56959   Biso      1.000     O          -0.544638           
         O28       1.0000    0.23091   0.24332   0.76440   Biso      1.000     O          -0.606395           
         O29       1.0000    0.25646   0.40386   0.81110   Biso      1.000     O          -0.645018           
         O30       1.0000    0.63160   0.38260   0.06959   Biso      1.000     O          -0.544637           
         O31       1.0000    0.63944   0.22500   0.02790   Biso      1.000     O          -0.530843           
         O32       1.0000    0.25646   0.59614   0.31110   Biso      1.000     O          -0.645016           
         O33       1.0000    0.68045   0.61580   0.38470   Biso      1.000     O          -0.559271           
         O34       1.0000    0.29162   0.22950   0.63960   Biso      1.000     O          -0.64814  
         O35       1.0000    0.23091   0.75668   0.26440   Biso      1.000     O          -0.606396           
         O36       1.0000    0.81955   0.11580   0.11530   Biso      1.000     O          -0.559272           
         O37       1.0000    0.79162   0.27050   0.13960   Biso      1.000     O          -0.64814  
         O38       1.0000    0.13944   0.27500   0.52790   Biso      1.000     O          -0.530843           
         O39       1.0000    0.26909   0.74332   0.73560   Biso      1.000     O          -0.606397           
         O40       1.0000    0.24354   0.90386   0.68890   Biso      1.000     O          -0.645016           
         O41       1.0000    0.86840   0.88260   0.43041   Biso      1.000     O          -0.544639           
         O42       1.0000    0.86056   0.72500   0.47210   Biso      1.000     O          -0.530842           
         O43       1.0000    0.75646   0.90386   0.81110   Biso      1.000     O          -0.645016           
         O44       1.0000    0.20838   0.72950   0.86040   Biso      1.000     O          -0.648141           
         O45       1.0000    0.18045   0.88420   0.88470   Biso      1.000     O          -0.559271           
         O46       1.0000    0.75646   0.09614   0.31110   Biso      1.000     O          -0.645018           
         O47       1.0000    0.31955   0.38420   0.61530   Biso      1.000     O          -0.559272           
         O48       1.0000    0.13160   0.88260   0.06959   Biso      1.000     O          -0.544639 