
##########################################################################
#               Crystallographic Information Format file
#               Produced by PyCifRW module
#
#  This is a CIF file.  CIF has been adopted by the International
#  Union of Crystallography as the standard for data archiving and
#  transmission.
#
#  For information on this file format, follow the CIF links at
#  http://www.iucr.org
##########################################################################

data_image0

_cell_length_a                          10.3547
_cell_length_b                          10.5172
_cell_length_c                          12.39
_cell_angle_alpha                       70.646
_cell_angle_beta                        89.451
_cell_angle_gamma                       63.849
_symmetry_space_group_name_H-M          'P 1'
_symmetry_int_tables_number             1
loop_
  _symmetry_equiv_pos_as_xyz
         'x, y, z' 
loop_
  _atom_site_label
  _atom_site_occupancy
  _atom_site_fract_x
  _atom_site_fract_y
  _atom_site_fract_z
  _atom_site_thermal_displace_type
  _atom_site_B_iso_or_equiv
  _atom_site_type_symbol
  _atom_site_charge
         C1        1.0000    0.84200   0.99280   0.43180   Biso      1.000     C          -0.138796           
         C2        1.0000    0.92100   0.13360   0.23090   Biso      1.000     C          -0.056277           
         C3        1.0000    0.98990   0.09990   0.33980   Biso      1.000     C          -0.173058           
         C4        1.0000    0.95760   0.02380   0.44190   Biso      1.000     C          0.069972  
         C5        1.0000    0.76870   0.03060   0.32500   Biso      1.000     C          -0.111402           
         C6        1.0000    0.70860   0.49600   0.93930   Biso      1.000     C          0.115127  
         C7        1.0000    0.78120   0.61750   0.78320   Biso      1.000     C          0.086029  
         C8        1.0000    0.67430   0.63110   0.70890   Biso      1.000     C          -0.157492           
         C9        1.0000    0.96780   0.21820   0.12770   Biso      1.000     C          0.579929  
         C10       1.0000    0.58040   0.57450   0.75170   Biso      1.000     C          0.06683   
         C11       1.0000    0.46750   0.58550   0.67340   Biso      1.000     C          0.282549  
         C12       1.0000    0.33030   0.63950   0.52350   Biso      1.000     C          0.261188  
         C13       1.0000    0.25950   0.70490   0.40170   Biso      1.000     C          0.084436  
         C14       1.0000    0.31560   0.77680   0.31600   Biso      1.000     C          -0.180098           
         C15       1.0000    0.24550   0.84450   0.20420   Biso      1.000     C          0.085136  
         C16       1.0000    0.07170   0.76780   0.25480   Biso      1.000     C          0.087357  
         C17       1.0000    0.13530   0.69830   0.36980   Biso      1.000     C          -0.173683           
         C18       1.0000    0.59910   0.50430   0.87100   Biso      1.000     C          -0.157851           
         C19       1.0000    0.29140   0.50400   0.06070   Biso      1.000     C          0.115127  
         C20       1.0000    0.21880   0.38250   0.21680   Biso      1.000     C          0.086029  
         C21       1.0000    0.32570   0.36890   0.29110   Biso      1.000     C          -0.157492           
         C22       1.0000    0.03220   0.78180   0.87230   Biso      1.000     C          0.579924  
         C23       1.0000    0.07900   0.86640   0.76910   Biso      1.000     C          -0.056271           
         C24       1.0000    0.01010   0.90010   0.66020   Biso      1.000     C          -0.173059           
         C25       1.0000    0.04240   0.97620   0.55810   Biso      1.000     C          0.069969  
         C26       1.0000    0.15800   0.00720   0.56820   Biso      1.000     C          -0.138795           
         C27       1.0000    0.23130   0.96940   0.67500   Biso      1.000     C          -0.111402           
         C28       1.0000    0.19030   0.90510   0.77710   Biso      1.000     C          -0.050409           
         C29       1.0000    0.26820   0.88870   0.88750   Biso      1.000     C          0.577909  
         C30       1.0000    0.86470   0.30170   0.63020   Biso      1.000     C          -0.1737   
         C31       1.0000    0.92830   0.23220   0.74520   Biso      1.000     C          0.087371  
         C32       1.0000    0.75450   0.15550   0.79580   Biso      1.000     C          0.085118  
         C33       1.0000    0.68440   0.22320   0.68400   Biso      1.000     C          -0.180084           
         C34       1.0000    0.74050   0.29510   0.59830   Biso      1.000     C          0.084444  
         C35       1.0000    0.66970   0.36050   0.47650   Biso      1.000     C          0.261189  
         C36       1.0000    0.53250   0.41450   0.32660   Biso      1.000     C          0.282548  
         C37       1.0000    0.40090   0.49570   0.12900   Biso      1.000     C          -0.15785  
         C38       1.0000    0.41960   0.42550   0.24830   Biso      1.000     C          0.066829  
         C39       1.0000    0.73180   0.11130   0.11250   Biso      1.000     C          0.57791   
         C40       1.0000    0.80970   0.09490   0.22290   Biso      1.000     C          -0.050409           
         Co1       1.0000    0.00000   0.00000   0.00000   Biso      1.000     Co          0.774398  
         Co2       1.0000    0.00000   0.50000   0.00000   Biso      1.000     Co          0.53135   
         H1        1.0000    0.84150   0.65980   0.75180   Biso      1.000     H          0.098318  
         H2        1.0000    0.38670   0.46290   0.77520   Biso      1.000     H          0.317979  
         H3        1.0000    0.71730   0.45210   0.01930   Biso      1.000     H          0.084892  
         H4        1.0000    0.93890   0.87000   0.65590   Biso      1.000     H          0.115389  
         H5        1.0000    0.66580   0.67870   0.62940   Biso      1.000     H          0.133166  
         H6        1.0000    0.53840   0.46350   0.90430   Biso      1.000     H          0.125695  
         H7        1.0000    0.28480   0.89370   0.14760   Biso      1.000     H          0.109189  
         H8        1.0000    0.98920   0.76160   0.23380   Biso      1.000     H          0.103025  
         H9        1.0000    0.09560   0.64790   0.42500   Biso      1.000     H          0.135072  
         H10       1.0000    0.68910   0.01240   0.32130   Biso      1.000     H          0.120227  
         H11       1.0000    0.81370   0.94570   0.49840   Biso      1.000     H          0.114258  
         H12       1.0000    0.40110   0.77950   0.33400   Biso      1.000     H          0.135786  
         H13       1.0000    0.61330   0.53710   0.22480   Biso      1.000     H          0.317978  
         H14       1.0000    0.06110   0.13000   0.34410   Biso      1.000     H          0.115389  
         H15       1.0000    0.18630   0.05430   0.50160   Biso      1.000     H          0.114257  
         H16       1.0000    0.31090   0.98760   0.67870   Biso      1.000     H          0.120226  
         H17       1.0000    0.90440   0.35210   0.57500   Biso      1.000     H          0.135072  
         H18       1.0000    0.71520   0.10630   0.85240   Biso      1.000     H          0.10919   
         H19       1.0000    0.01080   0.23840   0.76620   Biso      1.000     H          0.103024  
         H20       1.0000    0.46160   0.53650   0.09570   Biso      1.000     H          0.125695  
         H21       1.0000    0.33420   0.32130   0.37060   Biso      1.000     H          0.133166  
         H22       1.0000    0.15850   0.34020   0.24820   Biso      1.000     H          0.098319  
         H23       1.0000    0.28270   0.54790   0.98070   Biso      1.000     H          0.084891  
         H24       1.0000    0.59890   0.22050   0.66600   Biso      1.000     H          0.135785  
         N1        1.0000    0.87710   0.15650   0.82810   Biso      1.000     N          -0.194616           
         N2        1.0000    0.70400   0.45010   0.38990   Biso      1.000     N          -0.251302           
         N3        1.0000    0.19660   0.45270   0.10230   Biso      1.000     N          -0.188532           
         N4        1.0000    0.56360   0.33630   0.44110   Biso      1.000     N          -0.422444           
         N5        1.0000    0.61520   0.48220   0.29450   Biso      1.000     N          -0.173975           
         N6        1.0000    0.38480   0.51780   0.70550   Biso      1.000     N          -0.17399  
         N7        1.0000    0.80340   0.54730   0.89770   Biso      1.000     N          -0.188532           
         N8        1.0000    0.43640   0.66370   0.55890   Biso      1.000     N          -0.422443           
         N9        1.0000    0.29600   0.54990   0.61010   Biso      1.000     N          -0.251289           
         N10       1.0000    0.12290   0.84350   0.17190   Biso      1.000     N          -0.194617           
         O1        1.0000    0.02070   0.67000   0.86700   Biso      1.000     O          -0.504213           
         O2        1.0000    0.00590   0.82280   0.95850   Biso      1.000     O          -0.525234           
         O3        1.0000    0.80420   0.03540   0.05370   Biso      1.000     O          -0.520885           
         O4        1.0000    0.40380   0.81110   0.90790   Biso      1.000     O          -0.562062           
         O5        1.0000    0.99410   0.17720   0.04150   Biso      1.000     O          -0.525235           
         O6        1.0000    0.97930   0.33000   0.13300   Biso      1.000     O          -0.504214           
         O7        1.0000    0.59620   0.18890   0.09210   Biso      1.000     O          -0.562062           
         O8        1.0000    0.19580   0.96460   0.94630   Biso      1.000     O          -0.520885 