
##########################################################################
#               Crystallographic Information Format file
#               Produced by PyCifRW module
#
#  This is a CIF file.  CIF has been adopted by the International
#  Union of Crystallography as the standard for data archiving and
#  transmission.
#
#  For information on this file format, follow the CIF links at
#  http://www.iucr.org
##########################################################################

data_image0

_cell_length_a                          7.266
_cell_length_b                          10.7768
_cell_length_c                          11.5857
_cell_angle_alpha                       90
_cell_angle_beta                        90
_cell_angle_gamma                       90
_symmetry_space_group_name_H-M          'P 1'
_symmetry_int_tables_number             1
loop_
  _symmetry_equiv_pos_as_xyz
         'x, y, z' 
loop_
  _atom_site_label
  _atom_site_occupancy
  _atom_site_fract_x
  _atom_site_fract_y
  _atom_site_fract_z
  _atom_site_thermal_displace_type
  _atom_site_B_iso_or_equiv
  _atom_site_type_symbol
  _atom_site_charge
         C1        1.0000    0.79560   0.07500   0.23157   Biso      1.000     C          -0.325617           
         C2        1.0000    0.93590   0.16410   0.28170   Biso      1.000     C          -0.214577           
         C3        1.0000    0.66300   0.02240   0.31890   Biso      1.000     C          0.64896   
         C4        1.0000    0.53700   0.71200   0.59950   Biso      1.000     C          0.594108  
         C5        1.0000    0.43000   0.78290   0.69334   Biso      1.000     C          0.053301  
         C6        1.0000    0.56410   0.83590   0.78170   Biso      1.000     C          -0.214577           
         C7        1.0000    0.70440   0.92500   0.73157   Biso      1.000     C          -0.325617           
         C8        1.0000    0.83700   0.97760   0.81890   Biso      1.000     C          0.64896   
         C9        1.0000    0.03700   0.78800   0.40050   Biso      1.000     C          0.594108  
         C10       1.0000    0.93000   0.71710   0.30666   Biso      1.000     C          0.053301  
         C11       1.0000    0.06410   0.66410   0.21830   Biso      1.000     C          -0.214577           
         C12       1.0000    0.20440   0.57500   0.26843   Biso      1.000     C          -0.325617           
         C13       1.0000    0.33700   0.52240   0.18110   Biso      1.000     C          0.64896   
         C14       1.0000    0.46300   0.21200   0.90050   Biso      1.000     C          0.594108  
         C15       1.0000    0.57000   0.28290   0.80666   Biso      1.000     C          0.053301  
         C16       1.0000    0.43590   0.33590   0.71830   Biso      1.000     C          -0.214577           
         C17       1.0000    0.29560   0.42500   0.76843   Biso      1.000     C          -0.325617           
         C18       1.0000    0.16300   0.47760   0.68110   Biso      1.000     C          0.64896   
         C19       1.0000    0.07000   0.21710   0.19334   Biso      1.000     C          0.053301  
         C20       1.0000    0.96300   0.28800   0.09950   Biso      1.000     C          0.594108  
         Cd1       1.0000    0.11049   0.06645   0.95915   Biso      1.000     Cd          0.933674  
         Cd2       1.0000    0.38951   0.93355   0.45915   Biso      1.000     Cd          0.933674  
         Cd3       1.0000    0.88951   0.56645   0.54085   Biso      1.000     Cd          0.933674  
         Cd4       1.0000    0.61049   0.43355   0.04085   Biso      1.000     Cd          0.933674  
         H1        1.0000    0.13960   0.50700   0.30520   Biso      1.000     H          0.135057  
         H2        1.0000    0.14930   0.27680   0.23330   Biso      1.000     H          0.092804  
         H3        1.0000    0.87110   0.23220   0.31840   Biso      1.000     H          0.11932   
         H4        1.0000    0.99450   0.62120   0.15900   Biso      1.000     H          0.110944  
         H5        1.0000    0.86040   0.00700   0.19480   Biso      1.000     H          0.135057  
         H6        1.0000    0.72600   0.11790   0.17230   Biso      1.000     H          0.142441  
         H7        1.0000    0.30630   0.14700   0.14440   Biso      1.000     H          0.330226  
         H8        1.0000    0.18310   0.05200   0.18880   Biso      1.000     H          0.318507  
         H9        1.0000    0.35070   0.72320   0.73330   Biso      1.000     H          0.092804  
         H10       1.0000    0.62890   0.76780   0.81840   Biso      1.000     H          0.11932   
         H11       1.0000    0.49450   0.87880   0.84100   Biso      1.000     H          0.110944  
         H12       1.0000    0.63960   0.99300   0.69480   Biso      1.000     H          0.135057  
         H13       1.0000    0.77400   0.88210   0.67230   Biso      1.000     H          0.142441  
         H14       1.0000    0.00550   0.12120   0.34100   Biso      1.000     H          0.110944  
         H15       1.0000    0.69370   0.64700   0.35560   Biso      1.000     H          0.330226  
         H16       1.0000    0.31690   0.94800   0.68880   Biso      1.000     H          0.318507  
         H17       1.0000    0.85070   0.77680   0.26670   Biso      1.000     H          0.092804  
         H18       1.0000    0.12890   0.73220   0.18160   Biso      1.000     H          0.11932   
         H19       1.0000    0.68310   0.44800   0.81120   Biso      1.000     H          0.318507  
         H20       1.0000    0.80630   0.35300   0.85560   Biso      1.000     H          0.330226  
         H21       1.0000    0.22600   0.38210   0.82770   Biso      1.000     H          0.142441  
         H22       1.0000    0.36040   0.49300   0.80520   Biso      1.000     H          0.135057  
         H23       1.0000    0.50550   0.37880   0.65900   Biso      1.000     H          0.110944  
         H24       1.0000    0.37110   0.26780   0.68160   Biso      1.000     H          0.11932   
         H25       1.0000    0.64930   0.22320   0.76670   Biso      1.000     H          0.092804  
         H26       1.0000    0.81690   0.55200   0.31120   Biso      1.000     H          0.318506  
         H27       1.0000    0.27400   0.61790   0.32770   Biso      1.000     H          0.142441  
         H28       1.0000    0.19370   0.85300   0.64440   Biso      1.000     H          0.330226  
         N1        1.0000    0.68910   0.38001   0.85613   Biso      1.000     N          -0.650206           
         N2        1.0000    0.81090   0.61999   0.35613   Biso      1.000     N          -0.650206           
         N3        1.0000    0.18910   0.11999   0.14387   Biso      1.000     N          -0.650207           
         N4        1.0000    0.31090   0.88001   0.64387   Biso      1.000     N          -0.650207           
         O1        1.0000    0.02870   0.75266   0.50344   Biso      1.000     O          -0.556084           
         O2        1.0000    0.36850   0.12273   0.86489   Biso      1.000     O          -0.562381           
         O3        1.0000    0.47130   0.24734   0.00344   Biso      1.000     O          -0.556083           
         O4        1.0000    0.31580   0.53756   0.07499   Biso      1.000     O          -0.577525           
         O5        1.0000    0.47390   0.46154   0.21900   Biso      1.000     O          -0.592951           
         O6        1.0000    0.13150   0.87727   0.36489   Biso      1.000     O          -0.562381           
         O7        1.0000    0.81580   0.96244   0.92501   Biso      1.000     O          -0.577524           
         O8        1.0000    0.02610   0.53846   0.71900   Biso      1.000     O          -0.592951           
         O9        1.0000    0.63150   0.62273   0.63511   Biso      1.000     O          -0.562381           
         O10       1.0000    0.52870   0.74734   0.49656   Biso      1.000     O          -0.556083           
         O11       1.0000    0.68420   0.03756   0.42501   Biso      1.000     O          -0.577525           
         O12       1.0000    0.52610   0.96154   0.28100   Biso      1.000     O          -0.592951           
         O13       1.0000    0.86850   0.37727   0.13511   Biso      1.000     O          -0.562381           
         O14       1.0000    0.97130   0.25266   0.99656   Biso      1.000     O          -0.556083           
         O15       1.0000    0.97390   0.03846   0.78100   Biso      1.000     O          -0.592951           
         O16       1.0000    0.18420   0.46244   0.57499   Biso      1.000     O          -0.577525 