
##########################################################################
#               Crystallographic Information Format file
#               Produced by PyCifRW module
#
#  This is a CIF file.  CIF has been adopted by the International
#  Union of Crystallography as the standard for data archiving and
#  transmission.
#
#  For information on this file format, follow the CIF links at
#  http://www.iucr.org
##########################################################################

data_image0

_cell_length_a                          7.2556
_cell_length_b                          10.7639
_cell_length_c                          11.5747
_cell_angle_alpha                       90
_cell_angle_beta                        90
_cell_angle_gamma                       90
_symmetry_space_group_name_H-M          'P 1'
_symmetry_int_tables_number             1
loop_
  _symmetry_equiv_pos_as_xyz
         'x, y, z' 
loop_
  _atom_site_label
  _atom_site_occupancy
  _atom_site_fract_x
  _atom_site_fract_y
  _atom_site_fract_z
  _atom_site_thermal_displace_type
  _atom_site_B_iso_or_equiv
  _atom_site_type_symbol
  _atom_site_charge
         C1        1.0000    0.04640   0.67480   0.48030   Biso      1.000     C          -0.310307           
         C2        1.0000    0.18580   0.58560   0.53190   Biso      1.000     C          -0.196394           
         C3        1.0000    0.91280   0.72780   0.56890   Biso      1.000     C          0.640368  
         C4        1.0000    0.71440   0.53790   0.14990   Biso      1.000     C          0.596887  
         C5        1.0000    0.82120   0.46730   0.05680   Biso      1.000     C          0.06264   
         C6        1.0000    0.68580   0.41440   0.96810   Biso      1.000     C          -0.196394           
         C7        1.0000    0.54640   0.32520   0.01970   Biso      1.000     C          -0.310307           
         C8        1.0000    0.41280   0.27220   0.93110   Biso      1.000     C          0.640368  
         C9        1.0000    0.28560   0.96210   0.64990   Biso      1.000     C          0.596887  
         C10       1.0000    0.17880   0.03270   0.55680   Biso      1.000     C          0.06264   
         C11       1.0000    0.31420   0.08560   0.46810   Biso      1.000     C          -0.196394           
         C12       1.0000    0.45360   0.17480   0.51970   Biso      1.000     C          -0.310307           
         C13       1.0000    0.58720   0.22780   0.43110   Biso      1.000     C          0.640368  
         C14       1.0000    0.78560   0.03790   0.85010   Biso      1.000     C          0.596887  
         C15       1.0000    0.67880   0.96730   0.94320   Biso      1.000     C          0.06264   
         C16       1.0000    0.81420   0.91440   0.03190   Biso      1.000     C          -0.196394           
         C17       1.0000    0.95360   0.82520   0.98030   Biso      1.000     C          -0.31030599999999997          
         C18       1.0000    0.08720   0.77220   0.06890   Biso      1.000     C          0.640368  
         C19       1.0000    0.32120   0.53270   0.44320   Biso      1.000     C          0.06264   
         C20       1.0000    0.21440   0.46210   0.35010   Biso      1.000     C          0.596887  
         Cd1       1.0000    0.36060   0.68364   0.20906   Biso      1.000     Cd          0.9433090000000001  
         Cd2       1.0000    0.86060   0.31636   0.29094   Biso      1.000     Cd          0.9433090000000001  
         Cd3       1.0000    0.13940   0.18364   0.79094   Biso      1.000     Cd          0.9433090000000001  
         Cd4       1.0000    0.63940   0.81636   0.70906   Biso      1.000     Cd          0.9433090000000001  
         H1        1.0000    0.52300   0.13500   0.58400   Biso      1.000     H          0.137228  
         H2        1.0000    0.39400   0.47700   0.47900   Biso      1.000     H          0.09164   
         H3        1.0000    0.12100   0.50300   0.56800   Biso      1.000     H          0.104057  
         H4        1.0000    0.25600   0.11700   0.40800   Biso      1.000     H          0.11584100000000001           
         H5        1.0000    0.97700   0.63500   0.41600   Biso      1.000     H          0.137228  
         H6        1.0000    0.09700   0.74900   0.44100   Biso      1.000     H          0.133719  
         H7        1.0000    0.53900   0.60700   0.38900   Biso      1.000     H          0.36328699999999997           
         H8        1.0000    0.45900   0.68900   0.44300   Biso      1.000     H          0.342094  
         H9        1.0000    0.89400   0.52300   0.02100   Biso      1.000     H          0.09164   
         H10       1.0000    0.62100   0.49700   0.93200   Biso      1.000     H          0.104057  
         H11       1.0000    0.74400   0.38300   0.90800   Biso      1.000     H          0.11584100000000001           
         H12       1.0000    0.47700   0.36500   0.08400   Biso      1.000     H          0.137228  
         H13       1.0000    0.59700   0.25100   0.05900   Biso      1.000     H          0.133719  
         H14       1.0000    0.24400   0.61700   0.59200   Biso      1.000     H          0.11584100000000001           
         H15       1.0000    0.96100   0.10700   0.61100   Biso      1.000     H          0.36328699999999997           
         H16       1.0000    0.95900   0.31100   0.05700   Biso      1.000     H          0.342094  
         H17       1.0000    0.10600   0.97700   0.52100   Biso      1.000     H          0.09164   
         H18       1.0000    0.37900   0.00300   0.43200   Biso      1.000     H          0.104057  
         H19       1.0000    0.54100   0.81100   0.94300   Biso      1.000     H          0.342094  
         H20       1.0000    0.46100   0.89300   0.88900   Biso      1.000     H          0.36328699999999997           
         H21       1.0000    0.90300   0.75100   0.94100   Biso      1.000     H          0.133719  
         H22       1.0000    0.02300   0.86500   0.91600   Biso      1.000     H          0.137228  
         H23       1.0000    0.75600   0.88300   0.09200   Biso      1.000     H          0.11584100000000001           
         H24       1.0000    0.87900   0.99700   0.06800   Biso      1.000     H          0.104057  
         H25       1.0000    0.60600   0.02300   0.97900   Biso      1.000     H          0.09164   
         H26       1.0000    0.04100   0.18900   0.55700   Biso      1.000     H          0.342094  
         H27       1.0000    0.40300   0.24900   0.55900   Biso      1.000     H          0.133719  
         H28       1.0000    0.03900   0.39300   0.11100   Biso      1.000     H          0.36328699999999997           
         N1        1.0000    0.56050   0.87000   0.89400   Biso      1.000     N          -0.732577           
         N2        1.0000    0.06050   0.13000   0.60600   Biso      1.000     N          -0.732577           
         N3        1.0000    0.43950   0.63000   0.39400   Biso      1.000     N          -0.732577           
         N4        1.0000    0.93950   0.37000   0.10600   Biso      1.000     N          -0.732577           
         O1        1.0000    0.27780   0.99760   0.75340   Biso      1.000     O          -0.555499           
         O2        1.0000    0.88080   0.12750   0.88530   Biso      1.000     O          -0.564661           
         O3        1.0000    0.77780   0.00240   0.74660   Biso      1.000     O          -0.555499           
         O4        1.0000    0.56500   0.21280   0.32510   Biso      1.000     O          -0.577893           
         O5        1.0000    0.72440   0.28850   0.46880   Biso      1.000     O          -0.5937399999999999           
         O6        1.0000    0.38080   0.87250   0.61470   Biso      1.000     O          -0.564661           
         O7        1.0000    0.43500   0.28720   0.82510   Biso      1.000     O          -0.577892           
         O8        1.0000    0.22440   0.71150   0.03120   Biso      1.000     O          -0.5937399999999999           
         O9        1.0000    0.61920   0.62750   0.11470   Biso      1.000     O          -0.564661           
         O10       1.0000    0.72220   0.50240   0.25340   Biso      1.000     O          -0.555499           
         O11       1.0000    0.93500   0.71280   0.67490   Biso      1.000     O          -0.577892           
         O12       1.0000    0.77560   0.78850   0.53120   Biso      1.000     O          -0.5937399999999999           
         O13       1.0000    0.11920   0.37250   0.38530   Biso      1.000     O          -0.564661           
         O14       1.0000    0.22220   0.49760   0.24660   Biso      1.000     O          -0.555499           
         O15       1.0000    0.27560   0.21150   0.96880   Biso      1.000     O          -0.5937399999999999           
         O16       1.0000    0.06500   0.78720   0.17490   Biso      1.000     O          -0.577892 