
##########################################################################
#               Crystallographic Information Format file
#               Produced by PyCifRW module
#
#  This is a CIF file.  CIF has been adopted by the International
#  Union of Crystallography as the standard for data archiving and
#  transmission.
#
#  For information on this file format, follow the CIF links at
#  http://www.iucr.org
##########################################################################

data_image0

_cell_length_a                          7.286
_cell_length_b                          10.79
_cell_length_c                          11.61
_cell_angle_alpha                       90
_cell_angle_beta                        90
_cell_angle_gamma                       90
_symmetry_space_group_name_H-M          'P 1'
_symmetry_int_tables_number             1
loop_
  _symmetry_equiv_pos_as_xyz
         'x, y, z' 
loop_
  _atom_site_label
  _atom_site_occupancy
  _atom_site_fract_x
  _atom_site_fract_y
  _atom_site_fract_z
  _atom_site_thermal_displace_type
  _atom_site_B_iso_or_equiv
  _atom_site_type_symbol
  _atom_site_charge
         C1        1.0000    0.45460   0.17510   0.51840   Biso      1.000     C          -0.298419           
         C2        1.0000    0.31300   0.08570   0.46890   Biso      1.000     C          -0.19318  
         C3        1.0000    0.58740   0.22750   0.43080   Biso      1.000     C          0.637088  
         C4        1.0000    0.68050   0.96740   0.94330   Biso      1.000     C          0.050551  
         C5        1.0000    0.78530   0.03690   0.85020   Biso      1.000     C          0.5912350000000001  
         C6        1.0000    0.81300   0.91430   0.03110   Biso      1.000     C          -0.19318  
         C7        1.0000    0.95460   0.82490   0.98160   Biso      1.000     C          -0.298419           
         C8        1.0000    0.08740   0.77250   0.06920   Biso      1.000     C          0.637088  
         C9        1.0000    0.31950   0.53260   0.44330   Biso      1.000     C          0.050551  
         C10       1.0000    0.21470   0.46310   0.35020   Biso      1.000     C          0.5912350000000001  
         C11       1.0000    0.18700   0.58570   0.53110   Biso      1.000     C          -0.19318  
         C12       1.0000    0.04540   0.67510   0.48160   Biso      1.000     C          -0.298419           
         C13       1.0000    0.91260   0.72750   0.56920   Biso      1.000     C          0.637088  
         C14       1.0000    0.81950   0.46740   0.05670   Biso      1.000     C          0.05055   
         C15       1.0000    0.71470   0.53690   0.14980   Biso      1.000     C          0.5912350000000001  
         C16       1.0000    0.68700   0.41430   0.96890   Biso      1.000     C          -0.19318  
         C17       1.0000    0.54540   0.32490   0.01840   Biso      1.000     C          -0.298419           
         C18       1.0000    0.41260   0.27250   0.93080   Biso      1.000     C          0.637088  
         C19       1.0000    0.28530   0.96310   0.64980   Biso      1.000     C          0.5912350000000001  
         C20       1.0000    0.18050   0.03260   0.55670   Biso      1.000     C          0.05055   
         Cd1       1.0000    0.63910   0.81640   0.70910   Biso      1.000     Cd          0.932301  
         Cd2       1.0000    0.13910   0.18360   0.79090   Biso      1.000     Cd          0.932301  
         Cd3       1.0000    0.86090   0.31640   0.29090   Biso      1.000     Cd          0.932301  
         Cd4       1.0000    0.36090   0.68360   0.20910   Biso      1.000     Cd          0.932301  
         H1        1.0000    0.11670   0.51170   0.56990   Biso      1.000     H          0.11149500000000001           
         H2        1.0000    0.06550   0.20140   0.55870   Biso      1.000     H          0.306894  
         H3        1.0000    0.93640   0.09930   0.60660   Biso      1.000     H          0.321774  
         H4        1.0000    0.41020   0.47140   0.48460   Biso      1.000     H          0.094091  
         H5        1.0000    0.38330   0.01170   0.43010   Biso      1.000     H          0.11149500000000001           
         H6        1.0000    0.23640   0.13320   0.40620   Biso      1.000     H          0.101181  
         H7        1.0000    0.38430   0.24930   0.55680   Biso      1.000     H          0.122734  
         H8        1.0000    0.53070   0.12770   0.58130   Biso      1.000     H          0.132195  
         H9        1.0000    0.56550   0.79860   0.94130   Biso      1.000     H          0.306894  
         H10       1.0000    0.43640   0.90070   0.89340   Biso      1.000     H          0.321774  
         H11       1.0000    0.58980   0.02860   0.98460   Biso      1.000     H          0.094091  
         H12       1.0000    0.88330   0.98830   0.06990   Biso      1.000     H          0.11149500000000001           
         H13       1.0000    0.73640   0.86680   0.09380   Biso      1.000     H          0.101181  
         H14       1.0000    0.08980   0.97140   0.51540   Biso      1.000     H          0.094091  
         H15       1.0000    0.11570   0.74930   0.44320   Biso      1.000     H          0.122734  
         H16       1.0000    0.03070   0.87230   0.91870   Biso      1.000     H          0.132195  
         H17       1.0000    0.43450   0.70140   0.44130   Biso      1.000     H          0.306894  
         H18       1.0000    0.56360   0.59930   0.39340   Biso      1.000     H          0.321774  
         H19       1.0000    0.46930   0.37230   0.08130   Biso      1.000     H          0.132195  
         H20       1.0000    0.61570   0.25070   0.05680   Biso      1.000     H          0.122734  
         H21       1.0000    0.76360   0.36680   0.90620   Biso      1.000     H          0.101181  
         H22       1.0000    0.61670   0.48830   0.93010   Biso      1.000     H          0.11149500000000001           
         H23       1.0000    0.91020   0.52860   0.01540   Biso      1.000     H          0.094091  
         H24       1.0000    0.06360   0.40070   0.10660   Biso      1.000     H          0.321773  
         H25       1.0000    0.93450   0.29860   0.05870   Biso      1.000     H          0.306894  
         H26       1.0000    0.96930   0.62770   0.41870   Biso      1.000     H          0.132195  
         H27       1.0000    0.26360   0.63320   0.59380   Biso      1.000     H          0.101181  
         H28       1.0000    0.88430   0.75070   0.94320   Biso      1.000     H          0.122734  
         N1        1.0000    0.94120   0.37040   0.10600   Biso      1.000     N          -0.62963  
         N2        1.0000    0.44120   0.62960   0.39400   Biso      1.000     N          -0.62963  
         N3        1.0000    0.05880   0.12960   0.60600   Biso      1.000     N          -0.62963  
         N4        1.0000    0.55880   0.87040   0.89400   Biso      1.000     N          -0.62963  
         O1        1.0000    0.22130   0.49810   0.24690   Biso      1.000     O          -0.54842  
         O2        1.0000    0.61740   0.62710   0.11450   Biso      1.000     O          -0.569969           
         O3        1.0000    0.72130   0.50190   0.25310   Biso      1.000     O          -0.54842  
         O4        1.0000    0.93490   0.71300   0.67520   Biso      1.000     O          -0.57243  
         O5        1.0000    0.77570   0.78800   0.53080   Biso      1.000     O          -0.589488           
         O6        1.0000    0.11740   0.37290   0.38550   Biso      1.000     O          -0.569969           
         O7        1.0000    0.06510   0.78700   0.17520   Biso      1.000     O          -0.57243  
         O8        1.0000    0.27570   0.21200   0.96920   Biso      1.000     O          -0.589488           
         O9        1.0000    0.88260   0.12710   0.88550   Biso      1.000     O          -0.569969           
         O10       1.0000    0.77870   0.00190   0.74690   Biso      1.000     O          -0.54842  
         O11       1.0000    0.56510   0.21300   0.32480   Biso      1.000     O          -0.57243  
         O12       1.0000    0.72430   0.28800   0.46920   Biso      1.000     O          -0.589488           
         O13       1.0000    0.38260   0.87290   0.61450   Biso      1.000     O          -0.569969           
         O14       1.0000    0.27870   0.99810   0.75310   Biso      1.000     O          -0.54842  
         O15       1.0000    0.22430   0.71200   0.03080   Biso      1.000     O          -0.589488           
         O16       1.0000    0.43490   0.28700   0.82480   Biso      1.000     O          -0.57243 