
##########################################################################
#               Crystallographic Information Format file
#               Produced by PyCifRW module
#
#  This is a CIF file.  CIF has been adopted by the International
#  Union of Crystallography as the standard for data archiving and
#  transmission.
#
#  For information on this file format, follow the CIF links at
#  http://www.iucr.org
##########################################################################

data_image0

_cell_length_a                          7.286
_cell_length_b                          10.79
_cell_length_c                          11.61
_cell_angle_alpha                       90
_cell_angle_beta                        90
_cell_angle_gamma                       90
_symmetry_space_group_name_H-M          'P 1'
_symmetry_int_tables_number             1
loop_
  _symmetry_equiv_pos_as_xyz
         'x, y, z' 
loop_
  _atom_site_label
  _atom_site_occupancy
  _atom_site_fract_x
  _atom_site_fract_y
  _atom_site_fract_z
  _atom_site_thermal_displace_type
  _atom_site_B_iso_or_equiv
  _atom_site_type_symbol
  _atom_site_charge
         C1        1.0000    0.45800   0.17480   0.51910   Biso      1.000     C          -0.296975           
         C2        1.0000    0.31330   0.08650   0.46820   Biso      1.000     C          -0.177465           
         C3        1.0000    0.58700   0.22870   0.43140   Biso      1.000     C          0.640174  
         C4        1.0000    0.67860   0.96770   0.94320   Biso      1.000     C          0.037347  
         C5        1.0000    0.78740   0.03670   0.84980   Biso      1.000     C          0.598678  
         C6        1.0000    0.81330   0.91350   0.03180   Biso      1.000     C          -0.177465           
         C7        1.0000    0.95800   0.82520   0.98090   Biso      1.000     C          -0.296975           
         C8        1.0000    0.08700   0.77130   0.06860   Biso      1.000     C          0.640174  
         C9        1.0000    0.32140   0.53230   0.44320   Biso      1.000     C          0.037347  
         C10       1.0000    0.21260   0.46330   0.34980   Biso      1.000     C          0.598679  
         C11       1.0000    0.18670   0.58650   0.53180   Biso      1.000     C          -0.177465           
         C12       1.0000    0.04200   0.67480   0.48090   Biso      1.000     C          -0.296975           
         C13       1.0000    0.91300   0.72870   0.56860   Biso      1.000     C          0.640174  
         C14       1.0000    0.82140   0.46770   0.05680   Biso      1.000     C          0.037347  
         C15       1.0000    0.71260   0.53670   0.15020   Biso      1.000     C          0.598679  
         C16       1.0000    0.68670   0.41350   0.96820   Biso      1.000     C          -0.177465           
         C17       1.0000    0.54200   0.32520   0.01910   Biso      1.000     C          -0.296975           
         C18       1.0000    0.41300   0.27130   0.93140   Biso      1.000     C          0.640174  
         C19       1.0000    0.28740   0.96330   0.65020   Biso      1.000     C          0.598679  
         C20       1.0000    0.17860   0.03230   0.55680   Biso      1.000     C          0.037347  
         Cd1       1.0000    0.63800   0.81730   0.70930   Biso      1.000     Cd          0.928516  
         Cd2       1.0000    0.13800   0.18270   0.79070   Biso      1.000     Cd          0.928516  
         Cd3       1.0000    0.86200   0.31730   0.29070   Biso      1.000     Cd          0.928516  
         Cd4       1.0000    0.36200   0.68270   0.20930   Biso      1.000     Cd          0.928516  
         H1        1.0000    0.11000   0.50500   0.56800   Biso      1.000     H          0.10145   
         H2        1.0000    0.04600   0.20000   0.54900   Biso      1.000     H          0.305823  
         H3        1.0000    0.94100   0.09500   0.62500   Biso      1.000     H          0.308165  
         H4        1.0000    0.40300   0.46200   0.48900   Biso      1.000     H          0.091355  
         H5        1.0000    0.39000   0.00500   0.43200   Biso      1.000     H          0.10145   
         H6        1.0000    0.23500   0.13800   0.40300   Biso      1.000     H          0.097524  
         H7        1.0000    0.38800   0.24700   0.55900   Biso      1.000     H          0.122989  
         H8        1.0000    0.53800   0.12500   0.58700   Biso      1.000     H          0.126896  
         H9        1.0000    0.54600   0.80000   0.95100   Biso      1.000     H          0.305823  
         H10       1.0000    0.44100   0.90500   0.87500   Biso      1.000     H          0.308165  
         H11       1.0000    0.59700   0.03800   0.98900   Biso      1.000     H          0.091355  
         H12       1.0000    0.89000   0.99500   0.06800   Biso      1.000     H          0.101451  
         H13       1.0000    0.73500   0.86200   0.09700   Biso      1.000     H          0.097524  
         H14       1.0000    0.09700   0.96200   0.51100   Biso      1.000     H          0.091355  
         H15       1.0000    0.11200   0.74700   0.44100   Biso      1.000     H          0.122989  
         H16       1.0000    0.03800   0.87500   0.91300   Biso      1.000     H          0.126897  
         H17       1.0000    0.45400   0.70000   0.45100   Biso      1.000     H          0.305823  
         H18       1.0000    0.55900   0.59500   0.37500   Biso      1.000     H          0.308165  
         H19       1.0000    0.46200   0.37500   0.08700   Biso      1.000     H          0.126897  
         H20       1.0000    0.61200   0.25300   0.05900   Biso      1.000     H          0.122989  
         H21       1.0000    0.76500   0.36200   0.90300   Biso      1.000     H          0.097524  
         H22       1.0000    0.61000   0.49500   0.93200   Biso      1.000     H          0.101451  
         H23       1.0000    0.90300   0.53800   0.01100   Biso      1.000     H          0.091355  
         H24       1.0000    0.05900   0.40500   0.12500   Biso      1.000     H          0.308165  
         H25       1.0000    0.95400   0.30000   0.04900   Biso      1.000     H          0.305823  
         H26       1.0000    0.96200   0.62500   0.41300   Biso      1.000     H          0.126897  
         H27       1.0000    0.26500   0.63800   0.59700   Biso      1.000     H          0.097524  
         H28       1.0000    0.88800   0.75300   0.94100   Biso      1.000     H          0.122989  
         N1        1.0000    0.94100   0.36950   0.10670   Biso      1.000     N          -0.607917           
         N2        1.0000    0.44100   0.63050   0.39330   Biso      1.000     N          -0.607917           
         N3        1.0000    0.05900   0.13050   0.60670   Biso      1.000     N          -0.607917           
         N4        1.0000    0.55900   0.86950   0.89330   Biso      1.000     N          -0.607917           
         O1        1.0000    0.22380   0.49600   0.24710   Biso      1.000     O          -0.551061           
         O2        1.0000    0.61760   0.62470   0.11450   Biso      1.000     O          -0.562137           
         O3        1.0000    0.72380   0.50400   0.25290   Biso      1.000     O          -0.551061           
         O4        1.0000    0.93480   0.71210   0.67500   Biso      1.000     O          -0.575779           
         O5        1.0000    0.77460   0.78700   0.53060   Biso      1.000     O          -0.587585           
         O6        1.0000    0.11760   0.37530   0.38550   Biso      1.000     O          -0.562137           
         O7        1.0000    0.06520   0.78790   0.17500   Biso      1.000     O          -0.575779           
         O8        1.0000    0.27460   0.21300   0.96940   Biso      1.000     O          -0.587585           
         O9        1.0000    0.88240   0.12470   0.88550   Biso      1.000     O          -0.562137           
         O10       1.0000    0.77620   0.00400   0.74710   Biso      1.000     O          -0.551061           
         O11       1.0000    0.56520   0.21210   0.32500   Biso      1.000     O          -0.57578  
         O12       1.0000    0.72540   0.28700   0.46940   Biso      1.000     O          -0.587585           
         O13       1.0000    0.38240   0.87530   0.61450   Biso      1.000     O          -0.562137           
         O14       1.0000    0.27620   0.99600   0.75290   Biso      1.000     O          -0.551061           
         O15       1.0000    0.22540   0.71300   0.03060   Biso      1.000     O          -0.587585           
         O16       1.0000    0.43480   0.28790   0.82500   Biso      1.000     O          -0.575779 