
##########################################################################
#               Crystallographic Information Format file
#               Produced by PyCifRW module
#
#  This is a CIF file.  CIF has been adopted by the International
#  Union of Crystallography as the standard for data archiving and
#  transmission.
#
#  For information on this file format, follow the CIF links at
#  http://www.iucr.org
##########################################################################

data_image0

_cell_length_a                          7.1862
_cell_length_b                          13.4836
_cell_length_c                          13.4836
_cell_angle_alpha                       119.431
_cell_angle_beta                        97.5329
_cell_angle_gamma                       82.4671
_symmetry_space_group_name_H-M          'P 1'
_symmetry_int_tables_number             1
loop_
  _symmetry_equiv_pos_as_xyz
         'x, y, z' 
loop_
  _atom_site_label
  _atom_site_occupancy
  _atom_site_fract_x
  _atom_site_fract_y
  _atom_site_fract_z
  _atom_site_thermal_displace_type
  _atom_site_B_iso_or_equiv
  _atom_site_type_symbol
  _atom_site_charge
         Ba1       1.0000    0.10959   0.33181   0.84871   Biso      1.000     Ba          1.54731   
         Ba2       1.0000    0.39041   0.84871   0.33181   Biso      1.000     Ba          1.54731   
         Ba3       1.0000    0.89041   0.66819   0.15129   Biso      1.000     Ba          1.547313  
         Ba4       1.0000    0.60959   0.15129   0.66819   Biso      1.000     Ba          1.547307  
         Ba5       1.0000    0.25000   0.10062   0.10062   Biso      1.000     Ba          1.512886  
         Ba6       1.0000    0.75000   0.89938   0.89938   Biso      1.000     Ba          1.512885  
         C1        1.0000    0.80750   0.04885   0.26115   Biso      1.000     C          -0.496363           
         C2        1.0000    0.03120   0.14420   0.43080   Biso      1.000     C          -0.565925           
         C3        1.0000    0.69250   0.26115   0.04885   Biso      1.000     C          -0.496356           
         C4        1.0000    0.46880   0.43080   0.14420   Biso      1.000     C          -0.565918           
         C5        1.0000    0.19250   0.95115   0.73885   Biso      1.000     C          -0.49636099999999994          
         C6        1.0000    0.30750   0.73885   0.95115   Biso      1.000     C          -0.49635799999999997          
         C7        1.0000    0.53120   0.56920   0.85580   Biso      1.000     C          -0.565916           
         C8        1.0000    0.96880   0.85580   0.56920   Biso      1.000     C          -0.565925           
         H1        1.0000    0.62200   0.60600   0.87600   Biso      1.000     H          0.213054  
         H2        1.0000    0.89900   0.01400   0.20800   Biso      1.000     H          0.197794  
         H3        1.0000    0.77000   0.12600   0.27200   Biso      1.000     H          0.155634  
         H4        1.0000    0.97300   0.21000   0.44200   Biso      1.000     H          0.21214299999999997           
         H5        1.0000    0.12200   0.12400   0.39400   Biso      1.000     H          0.21305700000000002           
         H6        1.0000    0.60100   0.20800   0.01400   Biso      1.000     H          0.197793  
         H7        1.0000    0.73000   0.27200   0.12600   Biso      1.000     H          0.155633  
         H8        1.0000    0.37800   0.39400   0.12400   Biso      1.000     H          0.213054  
         H9        1.0000    0.52700   0.44200   0.21000   Biso      1.000     H          0.21214499999999997           
         H10       1.0000    0.23000   0.87400   0.72800   Biso      1.000     H          0.155633  
         H11       1.0000    0.02700   0.79000   0.55800   Biso      1.000     H          0.212144  
         H12       1.0000    0.87800   0.87600   0.60600   Biso      1.000     H          0.213056  
         H13       1.0000    0.39900   0.79200   0.98600   Biso      1.000     H          0.197792  
         H14       1.0000    0.27000   0.72800   0.87400   Biso      1.000     H          0.155633  
         H15       1.0000    0.47300   0.55800   0.79000   Biso      1.000     H          0.21214299999999997           
         H16       1.0000    0.10100   0.98600   0.79200   Biso      1.000     H          0.197793  
         N1        1.0000    0.61000   0.37168   0.05732   Biso      1.000     N          0.216216  
         N2        1.0000    0.89000   0.05732   0.37168   Biso      1.000     N          0.216225  
         N3        1.0000    0.39000   0.62832   0.94268   Biso      1.000     N          0.21621300000000002           
         N4        1.0000    0.11000   0.94268   0.62832   Biso      1.000     N          0.21622399999999997           
         O1        1.0000    0.01000   0.85991   0.37629   Biso      1.000     O          -0.717791           
         O2        1.0000    0.64750   0.85155   0.19305   Biso      1.000     O          -0.836084           
         O3        1.0000    0.23820   0.25857   0.62743   Biso      1.000     O          -0.776266           
         O4        1.0000    0.99000   0.14009   0.62371   Biso      1.000     O          -0.717787           
         O5        1.0000    0.29010   0.04397   0.52363   Biso      1.000     O          -0.794554           
         O6        1.0000    0.06310   0.26941   0.03399   Biso      1.000     O          -0.8584639999999999           
         O7        1.0000    0.92910   0.08152   0.96148   Biso      1.000     O          -0.879458           
         O8        1.0000    0.85250   0.19305   0.85155   Biso      1.000     O          -0.836083           
         O9        1.0000    0.26180   0.62743   0.25857   Biso      1.000     O          -0.776261           
         O10       1.0000    0.51000   0.62371   0.14009   Biso      1.000     O          -0.717795           
         O11       1.0000    0.20990   0.52363   0.04397   Biso      1.000     O          -0.79455  
         O12       1.0000    0.56310   0.96601   0.73059   Biso      1.000     O          -0.8584649999999999           
         O13       1.0000    0.42910   0.03852   0.91848   Biso      1.000     O          -0.879458           
         O14       1.0000    0.35250   0.14845   0.80695   Biso      1.000     O          -0.836082           
         O15       1.0000    0.76180   0.74143   0.37257   Biso      1.000     O          -0.776263           
         O16       1.0000    0.43690   0.03399   0.26941   Biso      1.000     O          -0.8584639999999999           
         O17       1.0000    0.70990   0.95603   0.47637   Biso      1.000     O          -0.79455  
         O18       1.0000    0.93690   0.73059   0.96601   Biso      1.000     O          -0.858466           
         O19       1.0000    0.07090   0.91848   0.03852   Biso      1.000     O          -0.879459           
         O20       1.0000    0.14750   0.80695   0.14845   Biso      1.000     O          -0.836082           
         O21       1.0000    0.73820   0.37257   0.74143   Biso      1.000     O          -0.776261           
         O22       1.0000    0.49000   0.37629   0.85991   Biso      1.000     O          -0.717787           
         O23       1.0000    0.79010   0.47637   0.95603   Biso      1.000     O          -0.794546           
         O24       1.0000    0.57090   0.96148   0.08152   Biso      1.000     O          -0.8794620000000001           
         P1        1.0000    0.14534   0.14568   0.56022   Biso      1.000     P          1.3022850000000001  
         P2        1.0000    0.89795   0.19722   0.96584   Biso      1.000     P          1.3240040000000002  
         P3        1.0000    0.60205   0.96584   0.19722   Biso      1.000     P          1.3240100000000001  
         P4        1.0000    0.64534   0.43978   0.85432   Biso      1.000     P          1.302284  
         P5        1.0000    0.10205   0.80278   0.03416   Biso      1.000     P          1.324006  
         P6        1.0000    0.85466   0.85432   0.43978   Biso      1.000     P          1.302287  
         P7        1.0000    0.35466   0.56022   0.14568   Biso      1.000     P          1.302286  
         P8        1.0000    0.39795   0.03416   0.80278   Biso      1.000     P          1.324006 