
##########################################################################
#               Crystallographic Information Format file
#               Produced by PyCifRW module
#
#  This is a CIF file.  CIF has been adopted by the International
#  Union of Crystallography as the standard for data archiving and
#  transmission.
#
#  For information on this file format, follow the CIF links at
#  http://www.iucr.org
##########################################################################

data_image0

_cell_length_a                          6.754
_cell_length_b                          11.937
_cell_length_c                          13.456
_cell_angle_alpha                       90
_cell_angle_beta                        100.381
_cell_angle_gamma                       90
_symmetry_space_group_name_H-M          'P 1'
_symmetry_int_tables_number             1
loop_
  _symmetry_equiv_pos_as_xyz
         'x, y, z' 
loop_
  _atom_site_label
  _atom_site_occupancy
  _atom_site_fract_x
  _atom_site_fract_y
  _atom_site_fract_z
  _atom_site_thermal_displace_type
  _atom_site_B_iso_or_equiv
  _atom_site_type_symbol
  _atom_site_charge
         C1        1.0000    0.88250   0.23300   0.99600   Biso      1.000     C          0.635669  
         C2        1.0000    0.18070   0.40070   0.34290   Biso      1.000     C          0.628791  
         C3        1.0000    0.52370   0.32720   0.41870   Biso      1.000     C          -0.137381           
         C4        1.0000    0.67510   0.31270   0.50240   Biso      1.000     C          0.131107  
         C5        1.0000    0.88250   0.26700   0.49600   Biso      1.000     C          0.635669  
         C6        1.0000    0.47280   0.12000   0.10980   Biso      1.000     C          0.127109  
         C7        1.0000    0.31790   0.09520   0.02990   Biso      1.000     C          -0.129381           
         C8        1.0000    0.34510   0.12230   0.93320   Biso      1.000     C          0.034616  
         C9        1.0000    0.18070   0.09930   0.84290   Biso      1.000     C          0.628791  
         C10       1.0000    0.34510   0.37770   0.43320   Biso      1.000     C          0.034616  
         C11       1.0000    0.52370   0.17280   0.91870   Biso      1.000     C          -0.137381           
         C12       1.0000    0.54200   0.60230   0.28070   Biso      1.000     C          0.628854  
         C13       1.0000    0.52720   0.62000   0.39020   Biso      1.000     C          0.127109  
         C14       1.0000    0.68210   0.59520   0.47010   Biso      1.000     C          -0.129381           
         C15       1.0000    0.65490   0.62230   0.56680   Biso      1.000     C          0.034616  
         C16       1.0000    0.81930   0.59930   0.65710   Biso      1.000     C          0.628791  
         C17       1.0000    0.47630   0.67280   0.58130   Biso      1.000     C          -0.137381           
         C18       1.0000    0.32490   0.68730   0.49760   Biso      1.000     C          0.131107  
         C19       1.0000    0.11750   0.73300   0.50400   Biso      1.000     C          0.635669  
         C20       1.0000    0.67510   0.18730   0.00240   Biso      1.000     C          0.131107  
         C21       1.0000    0.31790   0.40480   0.52990   Biso      1.000     C          -0.129381           
         C22       1.0000    0.45800   0.10230   0.21930   Biso      1.000     C          0.628854  
         C23       1.0000    0.45800   0.39770   0.71930   Biso      1.000     C          0.628854  
         C24       1.0000    0.11750   0.76700   0.00400   Biso      1.000     C          0.635669  
         C25       1.0000    0.32490   0.81270   0.99760   Biso      1.000     C          0.131106  
         C26       1.0000    0.47630   0.82720   0.08130   Biso      1.000     C          -0.137379           
         C27       1.0000    0.81930   0.90070   0.15710   Biso      1.000     C          0.628791  
         C28       1.0000    0.65490   0.87770   0.06680   Biso      1.000     C          0.034616  
         C29       1.0000    0.68210   0.90480   0.97010   Biso      1.000     C          -0.129381           
         C30       1.0000    0.52720   0.88000   0.89020   Biso      1.000     C          0.127109  
         C31       1.0000    0.54200   0.89770   0.78070   Biso      1.000     C          0.628854  
         C32       1.0000    0.47280   0.38000   0.60980   Biso      1.000     C          0.127109  
         H1        1.0000    0.80030   0.93850   0.95890   Biso      1.000     H          0.144247  
         H2        1.0000    0.19970   0.43850   0.54110   Biso      1.000     H          0.144247  
         H3        1.0000    0.54100   0.30400   0.35490   Biso      1.000     H          0.139284  
         H4        1.0000    0.19970   0.06150   0.04110   Biso      1.000     H          0.144247  
         H5        1.0000    0.45900   0.80400   0.14510   Biso      1.000     H          0.139284  
         H6        1.0000    0.54100   0.19600   0.85490   Biso      1.000     H          0.139284  
         H7        1.0000    0.80030   0.56150   0.45890   Biso      1.000     H          0.144247  
         H8        1.0000    0.45900   0.69600   0.64510   Biso      1.000     H          0.139284  
         N1        1.0000    0.34960   0.66150   0.40430   Biso      1.000     N          -0.410825           
         N2        1.0000    0.65040   0.33850   0.59570   Biso      1.000     N          -0.410825           
         N3        1.0000    0.34960   0.83850   0.90430   Biso      1.000     N          -0.410825           
         N4        1.0000    0.65040   0.16150   0.09570   Biso      1.000     N          -0.410825           
         O1        1.0000    0.83390   0.66790   0.72910   Biso      1.000     O          -0.65784  
         O2        1.0000    0.71230   0.59280   0.25810   Biso      1.000     O          -0.649566           
         O3        1.0000    0.37680   0.59890   0.21920   Biso      1.000     O          -0.660074           
         O4        1.0000    0.92280   0.24270   0.41160   Biso      1.000     O          -0.665398           
         O5        1.0000    0.00240   0.24280   0.07950   Biso      1.000     O          -0.623666           
         O6        1.0000    0.92280   0.25730   0.91160   Biso      1.000     O          -0.665398           
         O7        1.0000    0.07410   0.01410   0.84530   Biso      1.000     O          -0.649562           
         O8        1.0000    0.16610   0.16790   0.77090   Biso      1.000     O          -0.65784  
         O9        1.0000    0.28770   0.09280   0.24190   Biso      1.000     O          -0.649566           
         O10       1.0000    0.62320   0.09890   0.28080   Biso      1.000     O          -0.660074           
         O11       1.0000    0.00240   0.25720   0.57950   Biso      1.000     O          -0.623666           
         O12       1.0000    0.92590   0.51410   0.65470   Biso      1.000     O          -0.649562           
         O13       1.0000    0.07410   0.48590   0.34530   Biso      1.000     O          -0.649562           
         O14       1.0000    0.99760   0.74280   0.42050   Biso      1.000     O          -0.623666           
         O15       1.0000    0.28770   0.40720   0.74190   Biso      1.000     O          -0.649566           
         O16       1.0000    0.62320   0.40110   0.78080   Biso      1.000     O          -0.660074           
         O17       1.0000    0.99760   0.75720   0.92050   Biso      1.000     O          -0.623666           
         O18       1.0000    0.07720   0.74270   0.08840   Biso      1.000     O          -0.665398           
         O19       1.0000    0.92590   0.98590   0.15470   Biso      1.000     O          -0.649562           
         O20       1.0000    0.83390   0.83210   0.22910   Biso      1.000     O          -0.65784  
         O21       1.0000    0.71230   0.90720   0.75810   Biso      1.000     O          -0.649566           
         O22       1.0000    0.37680   0.90110   0.71920   Biso      1.000     O          -0.660074           
         O23       1.0000    0.07720   0.75730   0.58840   Biso      1.000     O          -0.665398           
         O24       1.0000    0.16610   0.33210   0.27090   Biso      1.000     O          -0.65784  
         Pr1       1.0000    0.05196   0.66887   0.25493   Biso      1.000     Pr          2.114015  
         Pr2       1.0000    0.94804   0.16887   0.24507   Biso      1.000     Pr          2.114015  
         Pr3       1.0000    0.94804   0.33113   0.74507   Biso      1.000     Pr          2.114015  
         Pr4       1.0000    0.05196   0.83113   0.75493   Biso      1.000     Pr          2.114015 