
##########################################################################
#               Crystallographic Information Format file
#               Produced by PyCifRW module
#
#  This is a CIF file.  CIF has been adopted by the International
#  Union of Crystallography as the standard for data archiving and
#  transmission.
#
#  For information on this file format, follow the CIF links at
#  http://www.iucr.org
##########################################################################

data_image0

_cell_length_a                          6.751
_cell_length_b                          11.916
_cell_length_c                          13.457
_cell_angle_alpha                       90
_cell_angle_beta                        100.427
_cell_angle_gamma                       90
_symmetry_space_group_name_H-M          'P 1'
_symmetry_int_tables_number             1
loop_
  _symmetry_equiv_pos_as_xyz
         'x, y, z' 
loop_
  _atom_site_label
  _atom_site_occupancy
  _atom_site_fract_x
  _atom_site_fract_y
  _atom_site_fract_z
  _atom_site_thermal_displace_type
  _atom_site_B_iso_or_equiv
  _atom_site_type_symbol
  _atom_site_charge
         C1        1.0000    0.11820   0.23360   0.50380   Biso      1.000     C          0.6392    
         C2        1.0000    0.65490   0.37760   0.06610   Biso      1.000     C          0.047265  
         C3        1.0000    0.81820   0.40050   0.15720   Biso      1.000     C          0.627722  
         C4        1.0000    0.47680   0.32650   0.08120   Biso      1.000     C          -0.149461           
         C5        1.0000    0.32570   0.31170   0.99810   Biso      1.000     C          0.13633   
         C6        1.0000    0.11820   0.26640   0.00380   Biso      1.000     C          0.6392    
         C7        1.0000    0.54250   0.10370   0.28090   Biso      1.000     C          0.628308  
         C8        1.0000    0.52690   0.12050   0.38990   Biso      1.000     C          0.13361   
         C9        1.0000    0.68280   0.09610   0.47030   Biso      1.000     C          -0.136582           
         C10       1.0000    0.68280   0.40390   0.97030   Biso      1.000     C          -0.136576           
         C11       1.0000    0.65490   0.12240   0.56610   Biso      1.000     C          0.047271  
         C12       1.0000    0.47680   0.17350   0.58120   Biso      1.000     C          -0.149462           
         C13       1.0000    0.32570   0.18830   0.49810   Biso      1.000     C          0.13633   
         C14       1.0000    0.45750   0.60370   0.21910   Biso      1.000     C          0.628308  
         C15       1.0000    0.47310   0.62050   0.11010   Biso      1.000     C          0.13361   
         C16       1.0000    0.31720   0.59610   0.02970   Biso      1.000     C          -0.136582           
         C17       1.0000    0.34510   0.62240   0.93390   Biso      1.000     C          0.047271  
         C18       1.0000    0.18180   0.59950   0.84280   Biso      1.000     C          0.627722  
         C19       1.0000    0.52320   0.67350   0.91880   Biso      1.000     C          -0.149462           
         C20       1.0000    0.81820   0.09950   0.65720   Biso      1.000     C          0.627722  
         C21       1.0000    0.67430   0.68830   0.00190   Biso      1.000     C          0.13633   
         C22       1.0000    0.52690   0.37950   0.88990   Biso      1.000     C          0.13361   
         C23       1.0000    0.88180   0.76640   0.49620   Biso      1.000     C          0.6392    
         C24       1.0000    0.54250   0.39630   0.78090   Biso      1.000     C          0.628308  
         C25       1.0000    0.45750   0.89630   0.71910   Biso      1.000     C          0.628308  
         C26       1.0000    0.47310   0.87950   0.61010   Biso      1.000     C          0.13361   
         C27       1.0000    0.31720   0.90390   0.52970   Biso      1.000     C          -0.136582           
         C28       1.0000    0.88180   0.73360   0.99620   Biso      1.000     C          0.6392    
         C29       1.0000    0.18180   0.90050   0.34280   Biso      1.000     C          0.627722  
         C30       1.0000    0.52320   0.82650   0.41880   Biso      1.000     C          -0.149462           
         C31       1.0000    0.67430   0.81170   0.50190   Biso      1.000     C          0.13633   
         C32       1.0000    0.34510   0.87760   0.43390   Biso      1.000     C          0.047271  
         H1        1.0000    0.54600   0.69200   0.85900   Biso      1.000     H          0.143143  
         H2        1.0000    0.21100   0.55900   0.04300   Biso      1.000     H          0.146112  
         H3        1.0000    0.78900   0.05900   0.45700   Biso      1.000     H          0.146112  
         H4        1.0000    0.45400   0.30800   0.14100   Biso      1.000     H          0.143143  
         H5        1.0000    0.78900   0.44100   0.95700   Biso      1.000     H          0.146112  
         H6        1.0000    0.54600   0.80800   0.35900   Biso      1.000     H          0.143143  
         H7        1.0000    0.21100   0.94100   0.54300   Biso      1.000     H          0.146112  
         H8        1.0000    0.45400   0.19200   0.64100   Biso      1.000     H          0.143143  
         N1        1.0000    0.65010   0.83780   0.59580   Biso      1.000     N          -0.417601           
         N2        1.0000    0.34990   0.33780   0.90420   Biso      1.000     N          -0.417601           
         N3        1.0000    0.34990   0.16220   0.40420   Biso      1.000     N          -0.417601           
         N4        1.0000    0.65010   0.66220   0.09580   Biso      1.000     N          -0.417601           
         Nd1       1.0000    0.94749   0.83054   0.74493   Biso      1.000     Nd          2.108418  
         Nd2       1.0000    0.94749   0.66946   0.24493   Biso      1.000     Nd          2.108418  
         Nd3       1.0000    0.05251   0.16946   0.25507   Biso      1.000     Nd          2.108418  
         Nd4       1.0000    0.05251   0.33054   0.75507   Biso      1.000     Nd          2.108419  
         O1        1.0000    0.07490   0.51340   0.84550   Biso      1.000     O          -0.654361           
         O2        1.0000    0.16550   0.66790   0.77080   Biso      1.000     O          -0.653695           
         O3        1.0000    0.28800   0.59350   0.24210   Biso      1.000     O          -0.646856           
         O4        1.0000    0.62250   0.59900   0.28110   Biso      1.000     O          -0.661225           
         O5        1.0000    0.99850   0.24340   0.42090   Biso      1.000     O          -0.620268           
         O6        1.0000    0.07720   0.25690   0.58850   Biso      1.000     O          -0.670066           
         O7        1.0000    0.92510   0.01340   0.65450   Biso      1.000     O          -0.654361           
         O8        1.0000    0.83450   0.16790   0.72920   Biso      1.000     O          -0.653695           
         O9        1.0000    0.71200   0.09350   0.25790   Biso      1.000     O          -0.646856           
         O10       1.0000    0.37750   0.09900   0.21890   Biso      1.000     O          -0.661225           
         O11       1.0000    0.99850   0.25660   0.92090   Biso      1.000     O          -0.620268           
         O12       1.0000    0.07720   0.24310   0.08850   Biso      1.000     O          -0.670066           
         O13       1.0000    0.92510   0.48660   0.15450   Biso      1.000     O          -0.654361           
         O14       1.0000    0.83450   0.33210   0.22920   Biso      1.000     O          -0.653695           
         O15       1.0000    0.71200   0.40650   0.75790   Biso      1.000     O          -0.646856           
         O16       1.0000    0.37750   0.40100   0.71890   Biso      1.000     O          -0.661225           
         O17       1.0000    0.00150   0.75660   0.57910   Biso      1.000     O          -0.620268           
         O18       1.0000    0.92280   0.74310   0.41150   Biso      1.000     O          -0.670066           
         O19       1.0000    0.07490   0.98660   0.34550   Biso      1.000     O          -0.654361           
         O20       1.0000    0.16550   0.83210   0.27080   Biso      1.000     O          -0.653695           
         O21       1.0000    0.28800   0.90650   0.74210   Biso      1.000     O          -0.646856           
         O22       1.0000    0.62250   0.90100   0.78110   Biso      1.000     O          -0.661225           
         O23       1.0000    0.92280   0.75690   0.91150   Biso      1.000     O          -0.670066           
         O24       1.0000    0.00150   0.74340   0.07910   Biso      1.000     O          -0.620268 