
##########################################################################
#               Crystallographic Information Format file
#               Produced by PyCifRW module
#
#  This is a CIF file.  CIF has been adopted by the International
#  Union of Crystallography as the standard for data archiving and
#  transmission.
#
#  For information on this file format, follow the CIF links at
#  http://www.iucr.org
##########################################################################

data_image0

_cell_length_a                          13.6908
_cell_length_b                          13.6908
_cell_length_c                          16.317
_cell_angle_alpha                       67.0219
_cell_angle_beta                        67.0219
_cell_angle_gamma                       75.6934
_symmetry_space_group_name_H-M          'P 1'
_symmetry_int_tables_number             1
loop_
  _symmetry_equiv_pos_as_xyz
         'x, y, z' 
loop_
  _atom_site_label
  _atom_site_occupancy
  _atom_site_fract_x
  _atom_site_fract_y
  _atom_site_fract_z
  _atom_site_thermal_displace_type
  _atom_site_B_iso_or_equiv
  _atom_site_type_symbol
  _atom_site_charge
         C1        1.0000    0.19686   0.92762   0.68939   Biso      1.000     C          -0.013098           
         C2        1.0000    0.01119   0.11433   0.19035   Biso      1.000     C          -0.130666           
         C3        1.0000    0.16380   0.35536   0.72447   Biso      1.000     C          -0.091561           
         C4        1.0000    0.06868   0.40204   0.77577   Biso      1.000     C          -0.024323           
         C5        1.0000    0.16905   0.33349   0.64610   Biso      1.000     C          0.001173  
         C6        1.0000    0.27012   0.28154   0.59076   Biso      1.000     C          0.585944  
         C7        1.0000    0.97745   0.42425   0.75021   Biso      1.000     C          -0.135211           
         C8        1.0000    0.98526   0.40180   0.67195   Biso      1.000     C          0.087068  
         C9        1.0000    0.80314   0.07238   0.31061   Biso      1.000     C          -0.013098           
         C10       1.0000    0.64175   0.92097   0.88145   Biso      1.000     C          -0.111901           
         C11       1.0000    0.06380   0.42832   0.85883   Biso      1.000     C          0.680096  
         C12       1.0000    0.69184   0.04886   0.37772   Biso      1.000     C          0.68365   
         C13       1.0000    0.88567   0.98881   0.30965   Biso      1.000     C          -0.130666           
         C14       1.0000    0.64464   0.83620   0.77553   Biso      1.000     C          -0.09156  
         C15       1.0000    0.59796   0.93132   0.72423   Biso      1.000     C          -0.024324           
         C16       1.0000    0.66651   0.83095   0.85390   Biso      1.000     C          0.001174  
         C17       1.0000    0.71846   0.72988   0.90924   Biso      1.000     C          0.585944  
         C18       1.0000    0.57575   0.02255   0.74979   Biso      1.000     C          -0.135211           
         C19       1.0000    0.59820   0.01474   0.82805   Biso      1.000     C          0.087069  
         C20       1.0000    0.07238   0.80314   0.81061   Biso      1.000     C          -0.013098           
         C21       1.0000    0.92097   0.64175   0.38145   Biso      1.000     C          -0.111901           
         C22       1.0000    0.57168   0.93620   0.64117   Biso      1.000     C          0.680097  
         C23       1.0000    0.95114   0.30816   0.12228   Biso      1.000     C          0.683649  
         C24       1.0000    0.07903   0.35825   0.61855   Biso      1.000     C          -0.111899           
         C25       1.0000    0.92762   0.19686   0.18939   Biso      1.000     C          -0.013098           
         C26       1.0000    0.01224   0.98776   0.75000   Biso      1.000     C          0.07488   
         C27       1.0000    0.17564   0.82436   0.75000   Biso      1.000     C          -0.098181           
         C28       1.0000    0.98776   0.01224   0.25000   Biso      1.000     C          0.074882  
         C29       1.0000    0.82436   0.17564   0.25000   Biso      1.000     C          -0.098181           
         C30       1.0000    0.40180   0.98526   0.17195   Biso      1.000     C          0.087067  
         C31       1.0000    0.42425   0.97745   0.25021   Biso      1.000     C          -0.13521  
         C32       1.0000    0.28154   0.27012   0.09076   Biso      1.000     C          0.585944  
         C33       1.0000    0.33349   0.16905   0.14610   Biso      1.000     C          0.001173  
         C34       1.0000    0.40204   0.06868   0.27577   Biso      1.000     C          -0.024324           
         C35       1.0000    0.35536   0.16380   0.22447   Biso      1.000     C          -0.09156  
         C36       1.0000    0.11433   0.01119   0.69035   Biso      1.000     C          -0.130664           
         C37       1.0000    0.42832   0.06380   0.35883   Biso      1.000     C          0.680097  
         C38       1.0000    0.30816   0.95114   0.62228   Biso      1.000     C          0.68365   
         C39       1.0000    0.35825   0.07903   0.11855   Biso      1.000     C          -0.111899           
         C40       1.0000    0.01474   0.59820   0.32805   Biso      1.000     C          0.087067  
         C41       1.0000    0.02255   0.57575   0.24979   Biso      1.000     C          -0.13521  
         C42       1.0000    0.72988   0.71846   0.40924   Biso      1.000     C          0.585944  
         C43       1.0000    0.83095   0.66651   0.35390   Biso      1.000     C          0.001174  
         C44       1.0000    0.93132   0.59796   0.22423   Biso      1.000     C          -0.024323           
         C45       1.0000    0.83620   0.64464   0.27553   Biso      1.000     C          -0.091561           
         C46       1.0000    0.98881   0.88567   0.80965   Biso      1.000     C          -0.130664           
         C47       1.0000    0.04886   0.69184   0.87772   Biso      1.000     C          0.683649  
         C48       1.0000    0.93620   0.57168   0.14117   Biso      1.000     C          0.680096  
         Gd1       1.0000    0.16769   0.45449   0.99786   Biso      1.000     Gd          2.0675    
         Gd2       1.0000    0.54551   0.83231   0.50214   Biso      1.000     Gd          2.067502  
         Gd3       1.0000    0.83231   0.54551   0.00214   Biso      1.000     Gd          2.0675    
         Gd4       1.0000    0.45449   0.16769   0.49786   Biso      1.000     Gd          2.067502  
         H1        1.0000    0.76780   0.23220   0.25000   Biso      1.000     H          0.127401  
         H2        1.0000    0.08190   0.34550   0.56440   Biso      1.000     H          0.143473  
         H3        1.0000    0.08240   0.12780   0.15110   Biso      1.000     H          0.150856  
         H4        1.0000    0.22520   0.33840   0.74320   Biso      1.000     H          0.139255  
         H5        1.0000    0.91180   0.45400   0.78550   Biso      1.000     H          0.137617  
         H6        1.0000    0.65450   0.91810   0.93560   Biso      1.000     H          0.143473  
         H7        1.0000    0.87220   0.91760   0.34890   Biso      1.000     H          0.150856  
         H8        1.0000    0.66160   0.77480   0.75680   Biso      1.000     H          0.139255  
         H9        1.0000    0.91810   0.65450   0.43560   Biso      1.000     H          0.143473  
         H10       1.0000    0.91760   0.87220   0.84890   Biso      1.000     H          0.150856  
         H11       1.0000    0.77480   0.66160   0.25680   Biso      1.000     H          0.139255  
         H12       1.0000    0.23220   0.76780   0.75000   Biso      1.000     H          0.127401  
         H13       1.0000    0.08820   0.54600   0.21450   Biso      1.000     H          0.137617  
         H14       1.0000    0.34550   0.08190   0.06440   Biso      1.000     H          0.143473  
         H15       1.0000    0.12780   0.08240   0.65110   Biso      1.000     H          0.150856  
         H16       1.0000    0.33840   0.22520   0.24320   Biso      1.000     H          0.139255  
         H17       1.0000    0.45400   0.91180   0.28550   Biso      1.000     H          0.137617  
         H18       1.0000    0.54600   0.08820   0.71450   Biso      1.000     H          0.137617  
         N1        1.0000    0.07533   0.92467   0.25000   Biso      1.000     N          0.520018  
         N2        1.0000    0.92467   0.07533   0.75000   Biso      1.000     N          0.520018  
         N3        1.0000    0.42354   0.88924   0.14454   Biso      1.000     N          0.525772  
         N4        1.0000    0.88924   0.42354   0.64454   Biso      1.000     N          0.525772  
         N5        1.0000    0.57646   0.11076   0.85546   Biso      1.000     N          0.525772  
         N6        1.0000    0.11076   0.57646   0.35546   Biso      1.000     N          0.525772  
         O1        1.0000    0.95183   0.67597   0.91487   Biso      1.000     O          -0.640389           
         O2        1.0000    0.85149   0.59167   0.12145   Biso      1.000     O          -0.636464           
         O3        1.0000    0.02467   0.53075   0.09745   Biso      1.000     O          -0.724705           
         O4        1.0000    0.72656   0.72638   0.48463   Biso      1.000     O          -0.611124           
         O5        1.0000    0.65184   0.75426   0.37781   Biso      1.000     O          -0.670346           
         O6        1.0000    0.83226   0.05256   0.79026   Biso      1.000     O          -0.331885           
         O7        1.0000    0.09858   0.57784   0.43363   Biso      1.000     O          -0.339515           
         O8        1.0000    0.19776   0.55766   0.29907   Biso      1.000     O          -0.343614           
         O9        1.0000    0.32403   0.04817   0.58513   Biso      1.000     O          -0.640389           
         O10       1.0000    0.94744   0.16774   0.70974   Biso      1.000     O          -0.331884           
         O11       1.0000    0.40833   0.14851   0.37855   Biso      1.000     O          -0.636463           
         O12       1.0000    0.46925   0.97533   0.40255   Biso      1.000     O          -0.724706           
         O13       1.0000    0.27362   0.27344   0.01537   Biso      1.000     O          -0.611124           
         O14       1.0000    0.24574   0.34816   0.12219   Biso      1.000     O          -0.670346           
         O15       1.0000    0.12709   0.62451   0.89109   Biso      1.000     O          -0.709662           
         O16       1.0000    0.37549   0.87291   0.60891   Biso      1.000     O          -0.709666           
         O17       1.0000    0.55766   0.19776   0.79907   Biso      1.000     O          -0.343614           
         O18       1.0000    0.27344   0.27362   0.51537   Biso      1.000     O          -0.611125           
         O19       1.0000    0.05256   0.83226   0.29026   Biso      1.000     O          -0.331884           
         O20       1.0000    0.42216   0.90142   0.06637   Biso      1.000     O          -0.339515           
         O21       1.0000    0.87291   0.37549   0.10891   Biso      1.000     O          -0.709662           
         O22       1.0000    0.04817   0.32403   0.08513   Biso      1.000     O          -0.640389           
         O23       1.0000    0.14851   0.40833   0.87855   Biso      1.000     O          -0.636464           
         O24       1.0000    0.97533   0.46925   0.90255   Biso      1.000     O          -0.724705           
         O25       1.0000    0.34816   0.24574   0.62219   Biso      1.000     O          -0.670346           
         O26       1.0000    0.16774   0.94744   0.20974   Biso      1.000     O          -0.331884           
         O27       1.0000    0.90142   0.42216   0.56637   Biso      1.000     O          -0.339515           
         O28       1.0000    0.80224   0.44234   0.70093   Biso      1.000     O          -0.343614           
         O29       1.0000    0.62451   0.12709   0.39109   Biso      1.000     O          -0.709666           
         O30       1.0000    0.67597   0.95183   0.41487   Biso      1.000     O          -0.640389           
         O31       1.0000    0.59167   0.85149   0.62145   Biso      1.000     O          -0.636463           
         O32       1.0000    0.53075   0.02467   0.59745   Biso      1.000     O          -0.724706           
         O33       1.0000    0.72638   0.72656   0.98463   Biso      1.000     O          -0.611124           
         O34       1.0000    0.75426   0.65184   0.87781   Biso      1.000     O          -0.670346           
         O35       1.0000    0.57784   0.09858   0.93363   Biso      1.000     O          -0.339516           
         O36       1.0000    0.44234   0.80224   0.20093   Biso      1.000     O          -0.343614 