
##########################################################################
#               Crystallographic Information Format file
#               Produced by PyCifRW module
#
#  This is a CIF file.  CIF has been adopted by the International
#  Union of Crystallography as the standard for data archiving and
#  transmission.
#
#  For information on this file format, follow the CIF links at
#  http://www.iucr.org
##########################################################################

data_image0

_cell_length_a                          15.277
_cell_length_b                          15.277
_cell_length_c                          15.776
_cell_angle_alpha                       90
_cell_angle_beta                        90
_cell_angle_gamma                       120
_symmetry_space_group_name_H-M          'P 1'
_symmetry_int_tables_number             1
loop_
  _symmetry_equiv_pos_as_xyz
         'x, y, z' 
loop_
  _atom_site_label
  _atom_site_occupancy
  _atom_site_fract_x
  _atom_site_fract_y
  _atom_site_fract_z
  _atom_site_thermal_displace_type
  _atom_site_B_iso_or_equiv
  _atom_site_type_symbol
  _atom_site_charge
         C1        1.0000    0.35668   0.49423   0.14103   Biso      1.000     C          0.605524  
         C2        1.0000    0.78517   0.67670   0.80576   Biso      1.000     C          -0.139882           
         C3        1.0000    0.73312   0.57177   0.80277   Biso      1.000     C          0.134973  
         C4        1.0000    0.64332   0.50577   0.85897   Biso      1.000     C          0.605524  
         C5        1.0000    0.32330   0.10847   0.80576   Biso      1.000     C          -0.139846           
         C6        1.0000    0.42823   0.16135   0.80277   Biso      1.000     C          0.134832  
         C7        1.0000    0.49423   0.13755   0.85897   Biso      1.000     C          0.605554  
         C8        1.0000    0.10847   0.78517   0.80576   Biso      1.000     C          -0.139904           
         C9        1.0000    0.16135   0.73312   0.80277   Biso      1.000     C          0.134897  
         C10       1.0000    0.13755   0.64332   0.85897   Biso      1.000     C          0.605542  
         C11       1.0000    0.21483   0.32330   0.80576   Biso      1.000     C          -0.139881           
         C12       1.0000    0.26688   0.42823   0.80277   Biso      1.000     C          0.134973  
         C13       1.0000    0.35668   0.49423   0.85897   Biso      1.000     C          0.605524  
         C14       1.0000    0.67670   0.89153   0.80576   Biso      1.000     C          -0.13985  
         C15       1.0000    0.57177   0.83865   0.80277   Biso      1.000     C          0.134824  
         C16       1.0000    0.50577   0.86245   0.85897   Biso      1.000     C          0.605553  
         C17       1.0000    0.32330   0.10847   0.19424   Biso      1.000     C          -0.139846           
         C18       1.0000    0.64332   0.50577   0.14103   Biso      1.000     C          0.605524  
         C19       1.0000    0.86245   0.35668   0.85897   Biso      1.000     C          0.605538  
         C20       1.0000    0.73312   0.57177   0.19723   Biso      1.000     C          0.134973  
         C21       1.0000    0.83865   0.26688   0.80277   Biso      1.000     C          0.1349    
         C22       1.0000    0.64332   0.13755   0.64103   Biso      1.000     C          0.605554  
         C23       1.0000    0.67670   0.78517   0.69424   Biso      1.000     C          -0.139879           
         C24       1.0000    0.57177   0.73312   0.69723   Biso      1.000     C          0.134899  
         C25       1.0000    0.50577   0.64332   0.64103   Biso      1.000     C          0.605538  
         C26       1.0000    0.10847   0.32330   0.69424   Biso      1.000     C          -0.139882           
         C27       1.0000    0.16135   0.42823   0.69723   Biso      1.000     C          0.134973  
         C28       1.0000    0.13755   0.49423   0.64103   Biso      1.000     C          0.605524  
         C29       1.0000    0.21483   0.89153   0.69424   Biso      1.000     C          -0.139846           
         C30       1.0000    0.26688   0.83865   0.69723   Biso      1.000     C          0.134832  
         C31       1.0000    0.35668   0.86245   0.64103   Biso      1.000     C          0.6055550000000001  
         C32       1.0000    0.32330   0.21483   0.69424   Biso      1.000     C          -0.139904           
         C33       1.0000    0.42823   0.26688   0.69723   Biso      1.000     C          0.13489600000000002           
         C34       1.0000    0.49423   0.35668   0.64103   Biso      1.000     C          0.605541  
         C35       1.0000    0.89153   0.67670   0.69424   Biso      1.000     C          -0.13988  
         C36       1.0000    0.83865   0.57177   0.69723   Biso      1.000     C          0.134973  
         C37       1.0000    0.86245   0.50577   0.64103   Biso      1.000     C          0.605524  
         C38       1.0000    0.78517   0.10847   0.69424   Biso      1.000     C          -0.139851           
         C39       1.0000    0.73312   0.16135   0.69723   Biso      1.000     C          0.134825  
         C40       1.0000    0.89153   0.21483   0.80576   Biso      1.000     C          -0.139879           
         C41       1.0000    0.78517   0.67670   0.19424   Biso      1.000     C          -0.139882           
         C42       1.0000    0.86245   0.35668   0.14103   Biso      1.000     C          0.605538  
         C43       1.0000    0.83865   0.26688   0.19723   Biso      1.000     C          0.134899  
         C44       1.0000    0.83865   0.57177   0.30277   Biso      1.000     C          0.134973  
         C45       1.0000    0.89153   0.67670   0.30576   Biso      1.000     C          -0.13988  
         C46       1.0000    0.49423   0.35668   0.35897   Biso      1.000     C          0.605541  
         C47       1.0000    0.42823   0.26688   0.30277   Biso      1.000     C          0.13489600000000002           
         C48       1.0000    0.32330   0.21483   0.30576   Biso      1.000     C          -0.139904           
         C49       1.0000    0.72956   0.86478   0.75000   Biso      1.000     C          -0.048644           
         C50       1.0000    0.13522   0.27044   0.75000   Biso      1.000     C          -0.048616           
         C51       1.0000    0.13522   0.86479   0.75000   Biso      1.000     C          -0.04872  
         C52       1.0000    0.27043   0.13521   0.75000   Biso      1.000     C          -0.04872  
         C53       1.0000    0.86478   0.72956   0.75000   Biso      1.000     C          -0.048616           
         C54       1.0000    0.86478   0.13522   0.75000   Biso      1.000     C          -0.048644           
         C55       1.0000    0.27043   0.13521   0.25000   Biso      1.000     C          -0.04872  
         C56       1.0000    0.86478   0.72956   0.25000   Biso      1.000     C          -0.048616           
         C57       1.0000    0.86478   0.13522   0.25000   Biso      1.000     C          -0.048645           
         C58       1.0000    0.72956   0.86478   0.25000   Biso      1.000     C          -0.048645           
         C59       1.0000    0.13522   0.27044   0.25000   Biso      1.000     C          -0.048617           
         C60       1.0000    0.13522   0.86479   0.25000   Biso      1.000     C          -0.048721           
         C61       1.0000    0.86245   0.50577   0.35897   Biso      1.000     C          0.605524  
         C62       1.0000    0.78517   0.10847   0.30576   Biso      1.000     C          -0.13985  
         C63       1.0000    0.73312   0.16135   0.30277   Biso      1.000     C          0.134825  
         C64       1.0000    0.64332   0.13755   0.35897   Biso      1.000     C          0.605554  
         C65       1.0000    0.89153   0.21483   0.19424   Biso      1.000     C          -0.139878           
         C66       1.0000    0.50577   0.86245   0.14103   Biso      1.000     C          0.605553  
         C67       1.0000    0.57177   0.83865   0.19723   Biso      1.000     C          0.134824  
         C68       1.0000    0.67670   0.89153   0.19424   Biso      1.000     C          -0.139849           
         C69       1.0000    0.26688   0.42823   0.19723   Biso      1.000     C          0.134973  
         C70       1.0000    0.21483   0.32330   0.19424   Biso      1.000     C          -0.13988  
         C71       1.0000    0.13755   0.64332   0.14103   Biso      1.000     C          0.605542  
         C72       1.0000    0.16135   0.73312   0.19723   Biso      1.000     C          0.134897  
         C73       1.0000    0.49423   0.13755   0.14103   Biso      1.000     C          0.605554  
         C74       1.0000    0.10847   0.78517   0.19424   Biso      1.000     C          -0.139903           
         C75       1.0000    0.26688   0.83865   0.30277   Biso      1.000     C          0.134832  
         C76       1.0000    0.21483   0.89153   0.30576   Biso      1.000     C          -0.139845           
         C77       1.0000    0.13755   0.49423   0.35897   Biso      1.000     C          0.605524  
         C78       1.0000    0.16135   0.42823   0.30277   Biso      1.000     C          0.134973  
         C79       1.0000    0.10847   0.32330   0.30576   Biso      1.000     C          -0.139881           
         C80       1.0000    0.50577   0.64332   0.35897   Biso      1.000     C          0.605537  
         C81       1.0000    0.57177   0.73312   0.30277   Biso      1.000     C          0.134899  
         C82       1.0000    0.67670   0.78517   0.30576   Biso      1.000     C          -0.139878           
         C83       1.0000    0.35668   0.86245   0.35897   Biso      1.000     C          0.6055550000000001  
         C84       1.0000    0.42823   0.16135   0.19723   Biso      1.000     C          0.134832  
         Dy1       1.0000    0.33333   0.66666   0.75000   Biso      1.000     Dy          1.866707  
         Dy2       1.0000    0.66667   0.33334   0.75000   Biso      1.000     Dy          1.866707  
         Dy3       1.0000    0.66667   0.33334   0.25000   Biso      1.000     Dy          1.866707  
         Dy4       1.0000    0.33333   0.66666   0.25000   Biso      1.000     Dy          1.866707  
         H1        1.0000    0.10005   0.20010   0.25000   Biso      1.000     H          0.10012599999999999           
         H2        1.0000    0.76700   0.71080   0.15560   Biso      1.000     H          0.127968  
         H3        1.0000    0.28920   0.05620   0.15560   Biso      1.000     H          0.127949  
         H4        1.0000    0.10005   0.89995   0.25000   Biso      1.000     H          0.100214  
         H5        1.0000    0.05620   0.28920   0.65560   Biso      1.000     H          0.127968  
         H6        1.0000    0.23300   0.94380   0.65560   Biso      1.000     H          0.127948  
         H7        1.0000    0.28920   0.23300   0.65560   Biso      1.000     H          0.127959  
         H8        1.0000    0.94380   0.71080   0.65560   Biso      1.000     H          0.127968  
         H9        1.0000    0.94380   0.23300   0.84440   Biso      1.000     H          0.12796   
         H10       1.0000    0.94380   0.23300   0.15560   Biso      1.000     H          0.127959  
         H11       1.0000    0.76700   0.71080   0.84440   Biso      1.000     H          0.127968  
         H12       1.0000    0.28920   0.05620   0.84440   Biso      1.000     H          0.127949  
         H13       1.0000    0.05620   0.76700   0.84440   Biso      1.000     H          0.127958  
         H14       1.0000    0.23300   0.28920   0.84440   Biso      1.000     H          0.127968  
         H15       1.0000    0.71080   0.94380   0.84440   Biso      1.000     H          0.127956  
         H16       1.0000    0.76700   0.05620   0.65560   Biso      1.000     H          0.12795499999999999           
         H17       1.0000    0.71080   0.94380   0.15560   Biso      1.000     H          0.127956  
         H18       1.0000    0.71080   0.76700   0.65560   Biso      1.000     H          0.12796   
         H19       1.0000    0.05620   0.76700   0.15560   Biso      1.000     H          0.127958  
         H20       1.0000    0.79990   0.89995   0.25000   Biso      1.000     H          0.100123  
         H21       1.0000    0.89995   0.10005   0.25000   Biso      1.000     H          0.100123  
         H22       1.0000    0.89995   0.79990   0.25000   Biso      1.000     H          0.10012599999999999           
         H23       1.0000    0.23300   0.28920   0.15560   Biso      1.000     H          0.127968  
         H24       1.0000    0.89995   0.10005   0.75000   Biso      1.000     H          0.100123  
         H25       1.0000    0.89995   0.79990   0.75000   Biso      1.000     H          0.10012599999999999           
         H26       1.0000    0.20010   0.10005   0.75000   Biso      1.000     H          0.100214  
         H27       1.0000    0.10005   0.89995   0.75000   Biso      1.000     H          0.100214  
         H28       1.0000    0.20010   0.10005   0.25000   Biso      1.000     H          0.100214  
         H29       1.0000    0.10005   0.20010   0.75000   Biso      1.000     H          0.10012599999999999           
         H30       1.0000    0.79990   0.89995   0.75000   Biso      1.000     H          0.100123  
         H31       1.0000    0.28920   0.23300   0.34440   Biso      1.000     H          0.127959  
         H32       1.0000    0.94380   0.71080   0.34440   Biso      1.000     H          0.127968  
         H33       1.0000    0.76700   0.05620   0.34440   Biso      1.000     H          0.12795499999999999           
         H34       1.0000    0.23300   0.94380   0.34440   Biso      1.000     H          0.127948  
         H35       1.0000    0.05620   0.28920   0.34440   Biso      1.000     H          0.127968  
         H36       1.0000    0.71080   0.76700   0.34440   Biso      1.000     H          0.12796   
         Mn1       1.0000    0.50000   0.00000   0.00000   Biso      1.000     Mn          1.1533440000000001  
         Mn2       1.0000    0.50000   0.50000   0.00000   Biso      1.000     Mn          1.153348  
         Mn3       1.0000    0.00000   0.50000   0.00000   Biso      1.000     Mn          1.153343  
         Mn4       1.0000    0.50000   0.00000   0.50000   Biso      1.000     Mn          1.153341  
         Mn5       1.0000    0.00000   0.50000   0.50000   Biso      1.000     Mn          1.153351  
         Mn6       1.0000    0.50000   0.50000   0.50000   Biso      1.000     Mn          1.153342  
         N1        1.0000    0.24002   0.48004   0.25000   Biso      1.000     N          -0.343462           
         N2        1.0000    0.51997   0.75999   0.25000   Biso      1.000     N          -0.343269           
         N3        1.0000    0.75998   0.24001   0.25000   Biso      1.000     N          -0.343269           
         N4        1.0000    0.24002   0.75999   0.25000   Biso      1.000     N          -0.343267           
         N5        1.0000    0.48003   0.24001   0.25000   Biso      1.000     N          -0.343267           
         N6        1.0000    0.75998   0.51996   0.25000   Biso      1.000     N          -0.343462           
         N7        1.0000    0.75998   0.51996   0.75000   Biso      1.000     N          -0.343462           
         N8        1.0000    0.48003   0.24001   0.75000   Biso      1.000     N          -0.343267           
         N9        1.0000    0.24002   0.75999   0.75000   Biso      1.000     N          -0.343267           
         N10       1.0000    0.24002   0.48004   0.75000   Biso      1.000     N          -0.343462           
         N11       1.0000    0.51997   0.75999   0.75000   Biso      1.000     N          -0.343269           
         N12       1.0000    0.75998   0.24001   0.75000   Biso      1.000     N          -0.343269           
         O1        1.0000    0.58649   0.19861   0.14548   Biso      1.000     O          -0.614267           
         O2        1.0000    0.61405   0.54973   0.09375   Biso      1.000     O          -0.567786           
         O3        1.0000    0.61212   0.41351   0.14548   Biso      1.000     O          -0.614268           
         O4        1.0000    0.93568   0.38595   0.09375   Biso      1.000     O          -0.567787           
         O5        1.0000    0.80139   0.38788   0.14548   Biso      1.000     O          -0.6142770000000001           
         O6        1.0000    0.54973   0.93568   0.09375   Biso      1.000     O          -0.5677979999999999           
         O7        1.0000    0.41351   0.80139   0.14548   Biso      1.000     O          -0.614266           
         O8        1.0000    0.38595   0.45027   0.09375   Biso      1.000     O          -0.567786           
         O9        1.0000    0.38788   0.58649   0.14548   Biso      1.000     O          -0.614268           
         O10       1.0000    0.06432   0.61405   0.09375   Biso      1.000     O          -0.567787           
         O11       1.0000    0.38595   0.93568   0.40625   Biso      1.000     O          -0.567796           
         O12       1.0000    0.45027   0.06432   0.09375   Biso      1.000     O          -0.567796           
         O13       1.0000    0.38788   0.80139   0.35452   Biso      1.000     O          -0.614266           
         O14       1.0000    0.06432   0.45027   0.40625   Biso      1.000     O          -0.567786           
         O15       1.0000    0.19861   0.58649   0.35452   Biso      1.000     O          -0.614268           
         O16       1.0000    0.54973   0.61405   0.40625   Biso      1.000     O          -0.567787           
         O17       1.0000    0.41351   0.61212   0.35452   Biso      1.000     O          -0.6142770000000001           
         O18       1.0000    0.61405   0.06432   0.40625   Biso      1.000     O          -0.5677979999999999           
         O19       1.0000    0.61212   0.19861   0.35452   Biso      1.000     O          -0.614266           
         O20       1.0000    0.93568   0.54973   0.40625   Biso      1.000     O          -0.567786           
         O21       1.0000    0.80139   0.41351   0.35452   Biso      1.000     O          -0.614268           
         O22       1.0000    0.19861   0.61212   0.14548   Biso      1.000     O          -0.614278           
         O23       1.0000    0.41351   0.61212   0.64548   Biso      1.000     O          -0.6142770000000001           
         O24       1.0000    0.06432   0.45027   0.59375   Biso      1.000     O          -0.567786           
         O25       1.0000    0.19861   0.58649   0.64548   Biso      1.000     O          -0.614268           
         O26       1.0000    0.45027   0.38595   0.40625   Biso      1.000     O          -0.567786           
         O27       1.0000    0.54973   0.93568   0.90625   Biso      1.000     O          -0.5677979999999999           
         O28       1.0000    0.41351   0.80139   0.85452   Biso      1.000     O          -0.614266           
         O29       1.0000    0.38595   0.45027   0.90625   Biso      1.000     O          -0.567786           
         O30       1.0000    0.38788   0.58649   0.85452   Biso      1.000     O          -0.614268           
         O31       1.0000    0.06432   0.61405   0.90625   Biso      1.000     O          -0.567786           
         O32       1.0000    0.19861   0.61212   0.85452   Biso      1.000     O          -0.614278           
         O33       1.0000    0.45027   0.06432   0.90625   Biso      1.000     O          -0.567796           
         O34       1.0000    0.58649   0.19861   0.85452   Biso      1.000     O          -0.614267           
         O35       1.0000    0.61405   0.54973   0.90625   Biso      1.000     O          -0.567786           
         O36       1.0000    0.61212   0.41351   0.85452   Biso      1.000     O          -0.614268           
         O37       1.0000    0.93568   0.38595   0.90625   Biso      1.000     O          -0.567787           
         O38       1.0000    0.80139   0.38788   0.85452   Biso      1.000     O          -0.6142770000000001           
         O39       1.0000    0.61405   0.06432   0.59375   Biso      1.000     O          -0.5677979999999999           
         O40       1.0000    0.61212   0.19861   0.64548   Biso      1.000     O          -0.614266           
         O41       1.0000    0.93568   0.54973   0.59375   Biso      1.000     O          -0.567786           
         O42       1.0000    0.80139   0.41351   0.64548   Biso      1.000     O          -0.614269           
         O43       1.0000    0.45027   0.38595   0.59375   Biso      1.000     O          -0.567786           
         O44       1.0000    0.58649   0.38788   0.64548   Biso      1.000     O          -0.614278           
         O45       1.0000    0.38595   0.93568   0.59375   Biso      1.000     O          -0.567796           
         O46       1.0000    0.38788   0.80139   0.64548   Biso      1.000     O          -0.614267           
         O47       1.0000    0.54973   0.61405   0.59375   Biso      1.000     O          -0.567787           
         O48       1.0000    0.58649   0.38788   0.35452   Biso      1.000     O          -0.614278 