
##########################################################################
#               Crystallographic Information Format file
#               Produced by PyCifRW module
#
#  This is a CIF file.  CIF has been adopted by the International
#  Union of Crystallography as the standard for data archiving and
#  transmission.
#
#  For information on this file format, follow the CIF links at
#  http://www.iucr.org
##########################################################################

data_image0

_cell_length_a                          7.2603
_cell_length_b                          10.3523
_cell_length_c                          18.692
_cell_angle_alpha                       90
_cell_angle_beta                        94.087
_cell_angle_gamma                       90
_symmetry_space_group_name_H-M          'P 1'
_symmetry_int_tables_number             1
loop_
  _symmetry_equiv_pos_as_xyz
         'x, y, z' 
loop_
  _atom_site_label
  _atom_site_occupancy
  _atom_site_fract_x
  _atom_site_fract_y
  _atom_site_fract_z
  _atom_site_thermal_displace_type
  _atom_site_B_iso_or_equiv
  _atom_site_type_symbol
  _atom_site_charge
         C1        1.0000    0.46500   0.83030   0.80172   Biso      1.000     C          -0.21917199999999998          
         C2        1.0000    0.03500   0.33030   0.69828   Biso      1.000     C          -0.21917199999999998          
         C3        1.0000    0.09840   0.32090   0.62072   Biso      1.000     C          -0.189598           
         C4        1.0000    0.19140   0.44330   0.59391   Biso      1.000     C          -0.35138  
         C5        1.0000    0.21620   0.44140   0.51450   Biso      1.000     C          0.723198  
         C6        1.0000    0.97850   0.20040   0.72660   Biso      1.000     C          0.640514  
         C7        1.0000    0.16500   0.79650   0.72060   Biso      1.000     C          0.6895    
         C8        1.0000    0.31710   0.88710   0.74649   Biso      1.000     C          -0.379378           
         C9        1.0000    0.40160   0.82090   0.87928   Biso      1.000     C          -0.189598           
         C10       1.0000    0.30860   0.94330   0.90609   Biso      1.000     C          -0.35138  
         C11       1.0000    0.28380   0.94140   0.98550   Biso      1.000     C          0.723198  
         C12       1.0000    0.52150   0.70040   0.77340   Biso      1.000     C          0.640514  
         C13       1.0000    0.66500   0.70350   0.22060   Biso      1.000     C          0.6895    
         C14       1.0000    0.81710   0.61290   0.24649   Biso      1.000     C          -0.379378           
         C15       1.0000    0.96500   0.66970   0.30172   Biso      1.000     C          -0.21917199999999998          
         C16       1.0000    0.90160   0.67910   0.37928   Biso      1.000     C          -0.189598           
         C17       1.0000    0.80860   0.55670   0.40609   Biso      1.000     C          -0.35138  
         C18       1.0000    0.78380   0.55860   0.48550   Biso      1.000     C          0.723198  
         C19       1.0000    0.02150   0.79960   0.27340   Biso      1.000     C          0.640514  
         C20       1.0000    0.83500   0.20350   0.27940   Biso      1.000     C          0.6895    
         C21       1.0000    0.68290   0.11290   0.25351   Biso      1.000     C          -0.379378           
         C22       1.0000    0.53500   0.16970   0.19828   Biso      1.000     C          -0.21917199999999998          
         C23       1.0000    0.59840   0.17910   0.12072   Biso      1.000     C          -0.189598           
         C24       1.0000    0.69140   0.05670   0.09391   Biso      1.000     C          -0.35138  
         C25       1.0000    0.71620   0.05860   0.01450   Biso      1.000     C          0.723198  
         C26       1.0000    0.47850   0.29960   0.22660   Biso      1.000     C          0.640514  
         C27       1.0000    0.18290   0.38710   0.75351   Biso      1.000     C          -0.379378           
         C28       1.0000    0.33500   0.29650   0.77940   Biso      1.000     C          0.6895    
         Ca1       1.0000    0.74695   0.25720   0.86708   Biso      1.000     Ca          1.520162  
         Ca2       1.0000    0.75305   0.75720   0.63292   Biso      1.000     Ca          1.520162  
         Ca3       1.0000    0.25305   0.74280   0.13292   Biso      1.000     Ca          1.520161  
         Ca4       1.0000    0.24695   0.24280   0.36708   Biso      1.000     Ca          1.520162  
         H1        1.0000    0.81590   0.75060   0.38140   Biso      1.000     H          0.114693  
         H2        1.0000    0.31590   0.74940   0.88140   Biso      1.000     H          0.114693  
         H3        1.0000    0.50830   0.80140   0.91170   Biso      1.000     H          0.11051400000000002           
         H4        1.0000    0.26180   0.96180   0.76790   Biso      1.000     H          0.168347  
         H5        1.0000    0.37870   0.91720   0.70520   Biso      1.000     H          0.143066  
         H6        1.0000    0.87150   0.05330   0.69670   Biso      1.000     H          0.409448  
         H7        1.0000    0.48740   0.15370   0.76600   Biso      1.000     H          0.358825  
         H8        1.0000    0.31140   0.45300   0.61960   Biso      1.000     H          0.151732  
         H9        1.0000    0.18860   0.95300   0.88040   Biso      1.000     H          0.151732  
         H10       1.0000    0.18410   0.24940   0.61860   Biso      1.000     H          0.114693  
         H11       1.0000    0.99170   0.30140   0.58830   Biso      1.000     H          0.11051400000000002           
         H12       1.0000    0.23820   0.46180   0.73210   Biso      1.000     H          0.168347  
         H13       1.0000    0.12130   0.41720   0.79480   Biso      1.000     H          0.143066  
         H14       1.0000    0.00830   0.69860   0.41170   Biso      1.000     H          0.11051400000000002           
         H15       1.0000    0.11740   0.51780   0.60480   Biso      1.000     H          0.141846  
         H16       1.0000    0.38260   0.01780   0.89520   Biso      1.000     H          0.141846  
         H17       1.0000    0.71680   0.42230   0.57630   Biso      1.000     H          0.373568  
         H18       1.0000    0.78320   0.92230   0.92370   Biso      1.000     H          0.373568  
         H19       1.0000    0.68860   0.54700   0.38040   Biso      1.000     H          0.151732  
         H20       1.0000    0.88260   0.48220   0.39520   Biso      1.000     H          0.141846  
         H21       1.0000    0.51260   0.84630   0.23400   Biso      1.000     H          0.358825  
         H22       1.0000    0.28320   0.57770   0.42370   Biso      1.000     H          0.373568  
         H23       1.0000    0.01260   0.65370   0.73400   Biso      1.000     H          0.358825  
         H24       1.0000    0.12850   0.94670   0.30330   Biso      1.000     H          0.409448  
         H25       1.0000    0.62130   0.08280   0.29480   Biso      1.000     H          0.143066  
         H26       1.0000    0.49170   0.19860   0.08830   Biso      1.000     H          0.11051400000000002           
         H27       1.0000    0.68410   0.25060   0.11860   Biso      1.000     H          0.114693  
         H28       1.0000    0.73820   0.03820   0.23210   Biso      1.000     H          0.168347  
         H29       1.0000    0.61740   0.98220   0.10480   Biso      1.000     H          0.141846  
         H30       1.0000    0.98740   0.34630   0.26600   Biso      1.000     H          0.358825  
         H31       1.0000    0.21680   0.07770   0.07630   Biso      1.000     H          0.373568  
         H32       1.0000    0.37150   0.44670   0.19670   Biso      1.000     H          0.409448  
         H33       1.0000    0.76180   0.53820   0.26790   Biso      1.000     H          0.168347  
         H34       1.0000    0.87870   0.58280   0.20520   Biso      1.000     H          0.143066  
         H35       1.0000    0.62850   0.55330   0.80330   Biso      1.000     H          0.409448  
         H36       1.0000    0.81140   0.04700   0.11960   Biso      1.000     H          0.151732  
         O1        1.0000    0.58210   0.69060   0.16130   Biso      1.000     O          -0.599748           
         O2        1.0000    0.08100   0.88290   0.32246   Biso      1.000     O          -0.477682           
         O3        1.0000    0.62770   0.79600   0.26472   Biso      1.000     O          -0.46115900000000004          
         O4        1.0000    0.81380   0.65060   0.52435   Biso      1.000     O          -0.6523359999999999           
         O5        1.0000    0.80860   0.89540   0.86272   Biso      1.000     O          -0.68148  
         O6        1.0000    0.72420   0.44750   0.50768   Biso      1.000     O          -0.576638           
         O7        1.0000    0.01780   0.82320   0.20924   Biso      1.000     O          -0.5857439999999999           
         O8        1.0000    0.25290   0.58900   0.22744   Biso      1.000     O          -0.871597           
         O9        1.0000    0.77580   0.94750   0.99232   Biso      1.000     O          -0.576638           
         O10       1.0000    0.30860   0.60460   0.36272   Biso      1.000     O          -0.68148  
         O11       1.0000    0.91790   0.19060   0.33870   Biso      1.000     O          -0.599748           
         O12       1.0000    0.87230   0.29600   0.23528   Biso      1.000     O          -0.46115900000000004          
         O13       1.0000    0.68620   0.15060   0.97565   Biso      1.000     O          -0.6523359999999999           
         O14       1.0000    0.48220   0.32320   0.29076   Biso      1.000     O          -0.5857439999999999           
         O15       1.0000    0.41900   0.38290   0.17754   Biso      1.000     O          -0.477682           
         O16       1.0000    0.61070   0.07290   0.80781   Biso      1.000     O          -0.8242079999999999           
         O17       1.0000    0.24710   0.08900   0.27256   Biso      1.000     O          -0.871597           
         O18       1.0000    0.11070   0.42710   0.30781   Biso      1.000     O          -0.8242079999999999           
         O19       1.0000    0.75290   0.91100   0.72744   Biso      1.000     O          -0.871597           
         O20       1.0000    0.19140   0.10460   0.13728   Biso      1.000     O          -0.68148  
         O21       1.0000    0.51780   0.67680   0.70924   Biso      1.000     O          -0.5857439999999999           
         O22       1.0000    0.38930   0.92710   0.19219   Biso      1.000     O          -0.8242079999999999           
         O23       1.0000    0.41790   0.30940   0.83870   Biso      1.000     O          -0.599748           
         O24       1.0000    0.37230   0.20400   0.73528   Biso      1.000     O          -0.46115900000000004          
         O25       1.0000    0.18620   0.34940   0.47565   Biso      1.000     O          -0.6523359999999999           
         O26       1.0000    0.27580   0.55250   0.49232   Biso      1.000     O          -0.576638           
         O27       1.0000    0.58100   0.61710   0.82246   Biso      1.000     O          -0.477682           
         O28       1.0000    0.91900   0.11710   0.67754   Biso      1.000     O          -0.477682           
         O29       1.0000    0.98220   0.17680   0.79076   Biso      1.000     O          -0.5857439999999999           
         O30       1.0000    0.88930   0.57290   0.69219   Biso      1.000     O          -0.824209           
         O31       1.0000    0.69140   0.39540   0.63728   Biso      1.000     O          -0.68148  
         O32       1.0000    0.08210   0.80940   0.66130   Biso      1.000     O          -0.599748           
         O33       1.0000    0.12770   0.70400   0.76472   Biso      1.000     O          -0.46115900000000004          
         O34       1.0000    0.31380   0.84940   0.02435   Biso      1.000     O          -0.6523359999999999           
         O35       1.0000    0.22420   0.05250   0.00768   Biso      1.000     O          -0.576638           
         O36       1.0000    0.74710   0.41100   0.77256   Biso      1.000     O          -0.871598           
         P1        1.0000    0.67634   0.93439   0.79994   Biso      1.000     P          1.324709  
         P2        1.0000    0.17634   0.56561   0.29994   Biso      1.000     P          1.324709  
         P3        1.0000    0.32366   0.06561   0.20006   Biso      1.000     P          1.324709  
         P4        1.0000    0.82366   0.43439   0.70006   Biso      1.000     P          1.324709 