
##########################################################################
#               Crystallographic Information Format file
#               Produced by PyCifRW module
#
#  This is a CIF file.  CIF has been adopted by the International
#  Union of Crystallography as the standard for data archiving and
#  transmission.
#
#  For information on this file format, follow the CIF links at
#  http://www.iucr.org
##########################################################################

data_image0

_cell_length_a                          7.8651
_cell_length_b                          10.545
_cell_length_c                          11.2
_cell_angle_alpha                       90
_cell_angle_beta                        90
_cell_angle_gamma                       90
_symmetry_space_group_name_H-M          'P 1'
_symmetry_int_tables_number             1
loop_
  _symmetry_equiv_pos_as_xyz
         'x, y, z' 
loop_
  _atom_site_label
  _atom_site_occupancy
  _atom_site_fract_x
  _atom_site_fract_y
  _atom_site_fract_z
  _atom_site_thermal_displace_type
  _atom_site_B_iso_or_equiv
  _atom_site_type_symbol
  _atom_site_charge
         C1        1.0000    0.96920   0.61900   0.38760   Biso      1.000     C          0.08226   
         C2        1.0000    0.06770   0.14020   0.01350   Biso      1.000     C          0.07677300000000001           
         C3        1.0000    0.46920   0.88100   0.88760   Biso      1.000     C          0.083509  
         C4        1.0000    0.39090   0.67420   0.88780   Biso      1.000     C          0.076252  
         C5        1.0000    0.49150   0.65300   0.98540   Biso      1.000     C          0.051738  
         C6        1.0000    0.56770   0.85980   0.98650   Biso      1.000     C          0.081228  
         C7        1.0000    0.78860   0.92890   0.32700   Biso      1.000     C          0.56255   
         C8        1.0000    0.99150   0.34700   0.01460   Biso      1.000     C          0.049205  
         C9        1.0000    0.89090   0.82580   0.38780   Biso      1.000     C          0.076861  
         C10       1.0000    0.06770   0.64020   0.48650   Biso      1.000     C          0.078941  
         C11       1.0000    0.28860   0.07110   0.67300   Biso      1.000     C          0.56045   
         C12       1.0000    0.46920   0.38100   0.61240   Biso      1.000     C          0.078325  
         C13       1.0000    0.39090   0.17420   0.61220   Biso      1.000     C          0.073189  
         C14       1.0000    0.49150   0.15300   0.51460   Biso      1.000     C          0.052685  
         C15       1.0000    0.56770   0.35980   0.51350   Biso      1.000     C          0.079559  
         C16       1.0000    0.99150   0.84700   0.48540   Biso      1.000     C          0.05159   
         C17       1.0000    0.89090   0.32580   0.11220   Biso      1.000     C          0.07806   
         C18       1.0000    0.28860   0.57110   0.82700   Biso      1.000     C          0.559569  
         C19       1.0000    0.78860   0.42890   0.17300   Biso      1.000     C          0.564508  
         C20       1.0000    0.96920   0.11900   0.11240   Biso      1.000     C          0.082726  
         Cl1       1.0000    0.49210   0.21854   0.93893   Biso      1.000     Cl          -0.5902   
         Cl2       1.0000    0.99210   0.78146   0.06107   Biso      1.000     Cl          -0.540249           
         Cl3       1.0000    0.49210   0.71854   0.56107   Biso      1.000     Cl          -0.538673           
         Cl4       1.0000    0.99210   0.28146   0.43893   Biso      1.000     Cl          -0.54102  
         H1        1.0000    0.96390   0.03770   0.14440   Biso      1.000     H          0.108625  
         H2        1.0000    0.99590   0.42810   0.98210   Biso      1.000     H          0.125627  
         H3        1.0000    0.46390   0.96230   0.85560   Biso      1.000     H          0.108896  
         H4        1.0000    0.49590   0.57190   0.01790   Biso      1.000     H          0.12520699999999998           
         H5        1.0000    0.12550   0.07230   0.97950   Biso      1.000     H          0.11438399999999999           
         H6        1.0000    0.96390   0.53770   0.35560   Biso      1.000     H          0.108404  
         H7        1.0000    0.99590   0.92810   0.51790   Biso      1.000     H          0.12447000000000001           
         H8        1.0000    0.12550   0.57230   0.52050   Biso      1.000     H          0.1137    
         H9        1.0000    0.46390   0.46230   0.64440   Biso      1.000     H          0.109423  
         H10       1.0000    0.49590   0.07190   0.48210   Biso      1.000     H          0.12528499999999998           
         H11       1.0000    0.62550   0.42770   0.47950   Biso      1.000     H          0.113978  
         H12       1.0000    0.62550   0.92770   0.02050   Biso      1.000     H          0.11420599999999999           
         N1        1.0000    0.38200   0.28930   0.66320   Biso      1.000     N          -0.171159           
         N2        1.0000    0.88200   0.21070   0.16320   Biso      1.000     N          -0.195831           
         N3        1.0000    0.08370   0.25460   0.96440   Biso      1.000     N          -0.12472799999999999          
         N4        1.0000    0.38200   0.78930   0.83680   Biso      1.000     N          -0.196736           
         N5        1.0000    0.58370   0.74540   0.03560   Biso      1.000     N          -0.149431           
         N6        1.0000    0.88200   0.71070   0.33680   Biso      1.000     N          -0.19575399999999998          
         N7        1.0000    0.08370   0.75460   0.53560   Biso      1.000     N          -0.150014           
         N8        1.0000    0.58370   0.24540   0.46440   Biso      1.000     N          -0.150616           
         Ni1       1.0000    0.74308   0.21545   0.32108   Biso      1.000     Ni          0.715797  
         Ni2       1.0000    0.24308   0.28455   0.82108   Biso      1.000     Ni          0.643305  
         Ni3       1.0000    0.74308   0.71545   0.17892   Biso      1.000     Ni          0.715581  
         Ni4       1.0000    0.24308   0.78455   0.67892   Biso      1.000     Ni          0.7139300000000001  
         O1        1.0000    0.71420   0.40040   0.26740   Biso      1.000     O          -0.516275           
         O2        1.0000    0.79270   0.53530   0.12420   Biso      1.000     O          -0.510614           
         O3        1.0000    0.21420   0.59960   0.73260   Biso      1.000     O          -0.5124489999999999           
         O4        1.0000    0.29270   0.46470   0.87580   Biso      1.000     O          -0.48029799999999995          
         O5        1.0000    0.71420   0.90040   0.23260   Biso      1.000     O          -0.515429           
         O6        1.0000    0.79270   0.03530   0.37580   Biso      1.000     O          -0.509829           
         O7        1.0000    0.21420   0.09960   0.76740   Biso      1.000     O          -0.48688100000000006          
         O8        1.0000    0.29270   0.96470   0.62420   Biso      1.000     O          -0.504614 