
##########################################################################
#               Crystallographic Information Format file
#               Produced by PyCifRW module
#
#  This is a CIF file.  CIF has been adopted by the International
#  Union of Crystallography as the standard for data archiving and
#  transmission.
#
#  For information on this file format, follow the CIF links at
#  http://www.iucr.org
##########################################################################

data_image0

_cell_length_a                          7.1897
_cell_length_b                          10.63
_cell_length_c                          11.543
_cell_angle_alpha                       90
_cell_angle_beta                        90
_cell_angle_gamma                       90
_symmetry_space_group_name_H-M          'P 1'
_symmetry_int_tables_number             1
loop_
  _symmetry_equiv_pos_as_xyz
         'x, y, z' 
loop_
  _atom_site_label
  _atom_site_occupancy
  _atom_site_fract_x
  _atom_site_fract_y
  _atom_site_fract_z
  _atom_site_thermal_displace_type
  _atom_site_B_iso_or_equiv
  _atom_site_type_symbol
  _atom_site_charge
         C1        1.0000    0.89790   0.82880   0.38990   Biso      1.000     C          0.072242  
         C2        1.0000    0.98040   0.12300   0.10510   Biso      1.000     C          0.082041  
         C3        1.0000    0.39790   0.67120   0.88990   Biso      1.000     C          0.069104  
         C4        1.0000    0.48960   0.65160   0.99200   Biso      1.000     C          0.055438999999999995          
         C5        1.0000    0.57380   0.85870   0.99630   Biso      1.000     C          0.074534  
         C6        1.0000    0.48040   0.87700   0.89490   Biso      1.000     C          0.079881  
         C7        1.0000    0.79350   0.93180   0.32450   Biso      1.000     C          0.568974  
         C8        1.0000    0.07380   0.14130   0.00370   Biso      1.000     C          0.073352  
         C9        1.0000    0.98960   0.84840   0.49200   Biso      1.000     C          0.053199  
         C10       1.0000    0.98040   0.62300   0.39490   Biso      1.000     C          0.081482  
         C11       1.0000    0.29350   0.06820   0.67550   Biso      1.000     C          0.566327  
         C12       1.0000    0.39790   0.17120   0.61010   Biso      1.000     C          0.071629  
         C13       1.0000    0.48960   0.15160   0.50800   Biso      1.000     C          0.05506900000000001           
         C14       1.0000    0.57380   0.35870   0.50370   Biso      1.000     C          0.072897  
         C15       1.0000    0.48040   0.37700   0.60510   Biso      1.000     C          0.081956  
         C16       1.0000    0.07380   0.64130   0.49630   Biso      1.000     C          0.069526  
         C17       1.0000    0.98960   0.34840   0.00800   Biso      1.000     C          0.054666  
         C18       1.0000    0.29350   0.56820   0.82450   Biso      1.000     C          0.566894  
         C19       1.0000    0.79350   0.43180   0.17550   Biso      1.000     C          0.568246  
         C20       1.0000    0.89790   0.32880   0.11010   Biso      1.000     C          0.071033  
         Cl1       1.0000    0.96900   0.33480   0.69045   Biso      1.000     Cl          -0.551475           
         Cl2       1.0000    0.46900   0.66520   0.30955   Biso      1.000     Cl          -0.5524680000000001           
         Cl3       1.0000    0.96900   0.83480   0.80955   Biso      1.000     Cl          -0.594655           
         Cl4       1.0000    0.46900   0.16520   0.19045   Biso      1.000     Cl          -0.551959           
         H1        1.0000    0.98830   0.42810   0.97460   Biso      1.000     H          0.12370899999999999           
         H2        1.0000    0.13300   0.07380   0.96800   Biso      1.000     H          0.11642899999999999           
         H3        1.0000    0.48830   0.57190   0.02540   Biso      1.000     H          0.12439800000000001           
         H4        1.0000    0.63300   0.92620   0.03200   Biso      1.000     H          0.11676500000000001           
         H5        1.0000    0.97670   0.04260   0.13680   Biso      1.000     H          0.110143  
         H6        1.0000    0.98830   0.92810   0.52540   Biso      1.000     H          0.125475  
         H7        1.0000    0.13300   0.57380   0.53200   Biso      1.000     H          0.11759800000000001           
         H8        1.0000    0.97670   0.54260   0.36320   Biso      1.000     H          0.110786  
         H9        1.0000    0.48830   0.07190   0.47460   Biso      1.000     H          0.124102  
         H10       1.0000    0.63300   0.42620   0.46800   Biso      1.000     H          0.11641099999999999           
         H11       1.0000    0.47670   0.45740   0.63680   Biso      1.000     H          0.11040799999999999           
         H12       1.0000    0.47670   0.95740   0.86320   Biso      1.000     H          0.111496  
         N1        1.0000    0.39420   0.28370   0.66040   Biso      1.000     N          -0.191341           
         N2        1.0000    0.89420   0.21630   0.16040   Biso      1.000     N          -0.19136199999999998          
         N3        1.0000    0.08110   0.25500   0.95540   Biso      1.000     N          -0.144021           
         N4        1.0000    0.39420   0.78370   0.83960   Biso      1.000     N          -0.16589  
         N5        1.0000    0.58110   0.74500   0.04460   Biso      1.000     N          -0.14374800000000001          
         N6        1.0000    0.89420   0.71630   0.33960   Biso      1.000     N          -0.191669           
         N7        1.0000    0.08110   0.75500   0.54460   Biso      1.000     N          -0.11845  
         N8        1.0000    0.58110   0.24500   0.45540   Biso      1.000     N          -0.143283           
         Ni1       1.0000    0.73902   0.21483   0.30995   Biso      1.000     Ni          0.702451  
         Ni2       1.0000    0.23902   0.28517   0.80995   Biso      1.000     Ni          0.701783  
         Ni3       1.0000    0.73902   0.71483   0.19005   Biso      1.000     Ni          0.703064  
         Ni4       1.0000    0.23902   0.78517   0.69005   Biso      1.000     Ni          0.637015  
         O1        1.0000    0.71560   0.40070   0.26680   Biso      1.000     O          -0.495988           
         O2        1.0000    0.80240   0.53930   0.13160   Biso      1.000     O          -0.517038           
         O3        1.0000    0.21560   0.59930   0.73320   Biso      1.000     O          -0.473786           
         O4        1.0000    0.30240   0.46070   0.86840   Biso      1.000     O          -0.513201           
         O5        1.0000    0.71560   0.90070   0.23320   Biso      1.000     O          -0.49446599999999996          
         O6        1.0000    0.80240   0.03930   0.36840   Biso      1.000     O          -0.517662           
         O7        1.0000    0.21560   0.09930   0.76680   Biso      1.000     O          -0.49071099999999995          
         O8        1.0000    0.30240   0.96070   0.63160   Biso      1.000     O          -0.49734799999999996 