
##########################################################################
#               Crystallographic Information Format file
#               Produced by PyCifRW module
#
#  This is a CIF file.  CIF has been adopted by the International
#  Union of Crystallography as the standard for data archiving and
#  transmission.
#
#  For information on this file format, follow the CIF links at
#  http://www.iucr.org
##########################################################################

data_image0

_cell_length_a                          9.0023
_cell_length_b                          10.6114
_cell_length_c                          11.6941
_cell_angle_alpha                       116.982
_cell_angle_beta                        109.226
_cell_angle_gamma                       90
_symmetry_space_group_name_H-M          'P 1'
_symmetry_int_tables_number             1
loop_
  _symmetry_equiv_pos_as_xyz
         'x, y, z' 
loop_
  _atom_site_label
  _atom_site_occupancy
  _atom_site_fract_x
  _atom_site_fract_y
  _atom_site_fract_z
  _atom_site_thermal_displace_type
  _atom_site_B_iso_or_equiv
  _atom_site_type_symbol
  _atom_site_charge
         C1        1.0000    0.44700   0.03860   0.10920   Biso      1.000     C          0.18449000000000002           
         C2        1.0000    0.05300   0.92940   0.89080   Biso      1.000     C          0.185061  
         C3        1.0000    0.10880   0.85274   0.77148   Biso      1.000     C          -0.554255           
         C4        1.0000    0.52200   0.09906   0.95852   Biso      1.000     C          -0.149835           
         C5        1.0000    0.47010   0.13677   0.06694   Biso      1.000     C          -0.167128           
         C6        1.0000    0.60880   0.91874   0.77148   Biso      1.000     C          -0.555242           
         C7        1.0000    0.39120   0.08126   0.22852   Biso      1.000     C          -0.555242           
         C8        1.0000    0.02990   0.06983   0.93306   Biso      1.000     C          -0.16674  
         C9        1.0000    0.97800   0.14054   0.04148   Biso      1.000     C          -0.150371           
         C10       1.0000    0.02200   0.85946   0.95852   Biso      1.000     C          -0.150371           
         C11       1.0000    0.97010   0.93017   0.06694   Biso      1.000     C          -0.166742           
         C12       1.0000    0.94700   0.07060   0.10920   Biso      1.000     C          0.185065  
         C13       1.0000    0.89120   0.14726   0.22852   Biso      1.000     C          -0.554257           
         C14       1.0000    0.47800   0.90094   0.04148   Biso      1.000     C          -0.149834           
         C15       1.0000    0.55300   0.96140   0.89080   Biso      1.000     C          0.18449100000000002           
         C16       1.0000    0.52990   0.86323   0.93306   Biso      1.000     C          -0.167129           
         H1        1.0000    0.29760   0.00940   0.19900   Biso      1.000     H          0.17258800000000002           
         H2        1.0000    0.03660   0.76260   0.93020   Biso      1.000     H          0.12144100000000001           
         H3        1.0000    0.95010   0.88140   0.11280   Biso      1.000     H          0.10371500000000002           
         H4        1.0000    0.79760   0.18960   0.19900   Biso      1.000     H          0.172242  
         H5        1.0000    0.85540   0.07570   0.25060   Biso      1.000     H          0.170199  
         H6        1.0000    0.46340   0.83240   0.06980   Biso      1.000     H          0.121654  
         H7        1.0000    0.54990   0.76860   0.88720   Biso      1.000     H          0.103745  
         H8        1.0000    0.70240   0.99060   0.80100   Biso      1.000     H          0.17258900000000002           
         H9        1.0000    0.64460   0.82510   0.74940   Biso      1.000     H          0.170781  
         H10       1.0000    0.04990   0.11860   0.88720   Biso      1.000     H          0.10371300000000001           
         H11       1.0000    0.20240   0.81040   0.80100   Biso      1.000     H          0.172242  
         H12       1.0000    0.14460   0.92430   0.74940   Biso      1.000     H          0.170199  
         H13       1.0000    0.53660   0.16760   0.93020   Biso      1.000     H          0.121655  
         H14       1.0000    0.45010   0.23140   0.11280   Biso      1.000     H          0.103746  
         H15       1.0000    0.35540   0.17490   0.25060   Biso      1.000     H          0.170782  
         H16       1.0000    0.96340   0.23740   0.06980   Biso      1.000     H          0.12144200000000001           
         Mo1       1.0000    0.76367   0.41345   0.53004   Biso      1.000     Mo          0.967324  
         Mo2       1.0000    0.26367   0.11659   0.53004   Biso      1.000     Mo          0.967612  
         Mo3       1.0000    0.23633   0.58655   0.46996   Biso      1.000     Mo          0.967333  
         Mo4       1.0000    0.73633   0.88341   0.46996   Biso      1.000     Mo          0.967609  
         O1        1.0000    0.58672   0.94653   0.34360   Biso      1.000     O          -0.721895           
         O2        1.0000    0.18839   0.22292   0.42424   Biso      1.000     O          -0.771251           
         O3        1.0000    0.41328   0.05347   0.65640   Biso      1.000     O          -0.7218939999999999           
         O4        1.0000    0.52654   0.85371   0.50480   Biso      1.000     O          -0.70189  
         O5        1.0000    0.31161   0.79868   0.57576   Biso      1.000     O          -0.771133           
         O6        1.0000    0.91328   0.60293   0.65640   Biso      1.000     O          -0.721668           
         O7        1.0000    0.02654   0.65109   0.50480   Biso      1.000     O          -0.701806           
         O8        1.0000    0.08672   0.39707   0.34360   Biso      1.000     O          -0.721671           
         O9        1.0000    0.97346   0.34891   0.49520   Biso      1.000     O          -0.701806           
         O10       1.0000    0.47346   0.14629   0.49520   Biso      1.000     O          -0.701888           
         O11       1.0000    0.68839   0.20132   0.42424   Biso      1.000     O          -0.77113  
         O12       1.0000    0.81161   0.77708   0.57576   Biso      1.000     O          -0.7712479999999999           
         P1        1.0000    0.53892   0.09557   0.38148   Biso      1.000     P          1.346061  
         P2        1.0000    0.96108   0.71409   0.61852   Biso      1.000     P          1.346287  
         P3        1.0000    0.46108   0.90443   0.61852   Biso      1.000     P          1.346067  
         P4        1.0000    0.03892   0.28591   0.38148   Biso      1.000     P          1.346292 