
##########################################################################
#               Crystallographic Information Format file
#               Produced by PyCifRW module
#
#  This is a CIF file.  CIF has been adopted by the International
#  Union of Crystallography as the standard for data archiving and
#  transmission.
#
#  For information on this file format, follow the CIF links at
#  http://www.iucr.org
##########################################################################

data_image0

_cell_length_a                          7.1407
_cell_length_b                          7.1407
_cell_length_c                          20.489
_cell_angle_alpha                       90
_cell_angle_beta                        90
_cell_angle_gamma                       90
_symmetry_space_group_name_H-M          'P 1'
_symmetry_int_tables_number             1
loop_
  _symmetry_equiv_pos_as_xyz
         'x, y, z' 
loop_
  _atom_site_label
  _atom_site_occupancy
  _atom_site_fract_x
  _atom_site_fract_y
  _atom_site_fract_z
  _atom_site_thermal_displace_type
  _atom_site_B_iso_or_equiv
  _atom_site_type_symbol
  _atom_site_charge
         Pt1       1.0000    0.00000   0.99999   0.50000   Biso      1.000     Pt          0.06852   
         Fe1       1.0000    0.50000   0.49982   0.50003   Biso      1.000     Fe          0.554956  
         N1        1.0000    0.50000   0.49928   0.59750   Biso      1.000     N          -0.134392           
         N2        1.0000    0.50000   0.49971   0.40271   Biso      1.000     N          -0.133505           
         N3        1.0000    0.68839   0.68813   0.50001   Biso      1.000     N          -0.303405           
         N4        1.0000    0.31158   0.31185   0.49999   Biso      1.000     N          -0.303248           
         N5        1.0000    0.31161   0.68813   0.50001   Biso      1.000     N          -0.303405           
         N6        1.0000    0.68842   0.31185   0.49999   Biso      1.000     N          -0.303249           
         C1        1.0000    0.50000   0.49979   0.73320   Biso      1.000     C          0.160011  
         C2        1.0000    0.50000   0.49905   0.93104   Biso      1.000     C          0.132916  
         C3        1.0000    0.50000   0.49949   0.86179   Biso      1.000     C          -0.111803           
         C4        1.0000    0.50000   0.49983   0.80241   Biso      1.000     C          -0.109863           
         C5        1.0000    0.50000   0.50115   0.26673   Biso      1.000     C          0.159853  
         C6        1.0000    0.50000   0.50198   0.06864   Biso      1.000     C          0.132404  
         C7        1.0000    0.50000   0.50105   0.13801   Biso      1.000     C          -0.113928           
         C8        1.0000    0.50000   0.50027   0.19744   Biso      1.000     C          -0.107391           
         C9        1.0000    0.80418   0.80367   0.50000   Biso      1.000     C          0.04086   
         C10       1.0000    0.19580   0.19632   0.50000   Biso      1.000     C          0.040521  
         C11       1.0000    0.19582   0.80367   0.50000   Biso      1.000     C          0.04086   
         C12       1.0000    0.80420   0.19632   0.50000   Biso      1.000     C          0.040521  
         C13       1.0000    0.50000   0.66435   0.63110   Biso      1.000     C          0.089845  
         C14       1.0000    0.50000   0.67044   0.69868   Biso      1.000     C          -0.173552           
         C15       1.0000    0.50000   0.67206   0.96505   Biso      1.000     C          -0.122693           
         C16       1.0000    0.50000   0.33436   0.63123   Biso      1.000     C          0.08994   
         C17       1.0000    0.50000   0.32909   0.69878   Biso      1.000     C          -0.173569           
         C18       1.0000    0.50000   0.32700   0.96572   Biso      1.000     C          -0.120801           
         C19       1.0000    0.50000   0.66482   0.36897   Biso      1.000     C          0.088623  
         C20       1.0000    0.50000   0.67175   0.30143   Biso      1.000     C          -0.174119           
         C21       1.0000    0.50000   0.67414   0.03361   Biso      1.000     C          -0.120125           
         C22       1.0000    0.50000   0.33480   0.36869   Biso      1.000     C          0.089844  
         C23       1.0000    0.50000   0.33034   0.30109   Biso      1.000     C          -0.173893           
         C24       1.0000    0.50000   0.32849   0.03448   Biso      1.000     C          -0.120596           
         H1        1.0000    0.50000   0.78859   0.59995   Biso      1.000     H          0.104373  
         H2        1.0000    0.50000   0.79866   0.72779   Biso      1.000     H          0.124621  
         H3        1.0000    0.50000   0.20970   0.60031   Biso      1.000     H          0.104878  
         H4        1.0000    0.50000   0.20124   0.72786   Biso      1.000     H          0.124003  
         H5        1.0000    0.50000   0.78928   0.39980   Biso      1.000     H          0.104846  
         H6        1.0000    0.50000   0.80007   0.27236   Biso      1.000     H          0.124849  
         H7        1.0000    0.50000   0.20916   0.39936   Biso      1.000     H          0.104916  
         H8        1.0000    0.50000   0.20360   0.27134   Biso      1.000     H          0.123949  
         H9        1.0000    0.50000   0.80362   0.06268   Biso      1.000     H          0.11461   
         H10       1.0000    0.50000   0.20342   0.06592   Biso      1.000     H          0.114047  
         H11       1.0000    0.50000   0.79759   0.93397   Biso      1.000     H          0.114479  
         H12       1.0000    0.50000   0.20206   0.93419   Biso      1.000     H          0.114291 