
##########################################################################
#               Crystallographic Information Format file
#               Produced by PyCifRW module
#
#  This is a CIF file.  CIF has been adopted by the International
#  Union of Crystallography as the standard for data archiving and
#  transmission.
#
#  For information on this file format, follow the CIF links at
#  http://www.iucr.org
##########################################################################

data_image0

_cell_length_a                          16.8128
_cell_length_b                          16.8128
_cell_length_c                          16.8128
_cell_angle_alpha                       105.664
_cell_angle_beta                        105.664
_cell_angle_gamma                       105.664
_symmetry_space_group_name_H-M          'P 1'
_symmetry_int_tables_number             1
loop_
  _symmetry_equiv_pos_as_xyz
         'x, y, z' 
loop_
  _atom_site_label
  _atom_site_occupancy
  _atom_site_fract_x
  _atom_site_fract_y
  _atom_site_fract_z
  _atom_site_thermal_displace_type
  _atom_site_B_iso_or_equiv
  _atom_site_type_symbol
  _atom_site_charge
         C1        1.0000    0.74830   0.31770   0.99650   Biso      1.000     C          -0.214341           
         C2        1.0000    0.78890   0.42440   0.71510   Biso      1.000     C          -0.321202           
         C3        1.0000    0.86080   0.51130   0.75820   Biso      1.000     C          -0.286442           
         C4        1.0000    0.93660   0.51450   0.72810   Biso      1.000     C          0.6468    
         C5        1.0000    0.73930   0.58890   0.54530   Biso      1.000     C          -0.002595           
         C6        1.0000    0.67840   0.52070   0.55410   Biso      1.000     C          -0.224289           
         C7        1.0000    0.67510   0.44350   0.49390   Biso      1.000     C          0.012197  
         C8        1.0000    0.77760   0.23210   0.24610   Biso      1.000     C          0.000896  
         C9        1.0000    0.81960   0.21220   0.18860   Biso      1.000     C          -0.240267           
         C10       1.0000    0.87200   0.29540   0.19370   Biso      1.000     C          0.01148   
         C11       1.0000    0.98960   0.66340   0.27870   Biso      1.000     C          -0.003697           
         C12       1.0000    0.99650   0.74830   0.31770   Biso      1.000     C          -0.214656           
         C13       1.0000    0.95610   0.74660   0.37780   Biso      1.000     C          -0.0153   
         C14       1.0000    0.75140   0.71550   0.40930   Biso      1.000     C          0.645146  
         C15       1.0000    0.71510   0.78890   0.42440   Biso      1.000     C          -0.321828           
         C16       1.0000    0.75820   0.86080   0.51130   Biso      1.000     C          -0.286005           
         C17       1.0000    0.71550   0.40930   0.75140   Biso      1.000     C          0.6447    
         C18       1.0000    0.74660   0.37780   0.95610   Biso      1.000     C          -0.015236           
         C19       1.0000    0.66340   0.27870   0.98960   Biso      1.000     C          -0.003976           
         C20       1.0000    0.29540   0.19370   0.87200   Biso      1.000     C          0.011092  
         C21       1.0000    0.49390   0.67510   0.44350   Biso      1.000     C          0.008697  
         C22       1.0000    0.24610   0.77760   0.23210   Biso      1.000     C          0.005441  
         C23       1.0000    0.18860   0.81960   0.21220   Biso      1.000     C          -0.238996           
         C24       1.0000    0.19370   0.87200   0.29540   Biso      1.000     C          0.012015  
         C25       1.0000    0.27870   0.98960   0.66340   Biso      1.000     C          -0.005755           
         C26       1.0000    0.31770   0.99650   0.74830   Biso      1.000     C          -0.213322           
         C27       1.0000    0.37780   0.95610   0.74660   Biso      1.000     C          -0.012293           
         C28       1.0000    0.72810   0.93660   0.51450   Biso      1.000     C          0.646743  
         C29       1.0000    0.40930   0.75140   0.71550   Biso      1.000     C          0.644711  
         C30       1.0000    0.51130   0.75820   0.86080   Biso      1.000     C          -0.287028           
         C31       1.0000    0.51450   0.72810   0.93660   Biso      1.000     C          0.647115  
         C32       1.0000    0.58890   0.54530   0.73930   Biso      1.000     C          -0.002589           
         C33       1.0000    0.52070   0.55410   0.67840   Biso      1.000     C          -0.224287           
         C34       1.0000    0.44350   0.49390   0.67510   Biso      1.000     C          0.01244   
         C35       1.0000    0.23210   0.24610   0.77760   Biso      1.000     C          0.000423  
         C36       1.0000    0.21220   0.18860   0.81960   Biso      1.000     C          -0.24092  
         C37       1.0000    0.42440   0.71510   0.78890   Biso      1.000     C          -0.321576           
         C38       1.0000    0.45470   0.26070   0.41110   Biso      1.000     C          -0.004218           
         C39       1.0000    0.44590   0.32160   0.47930   Biso      1.000     C          -0.226012           
         C40       1.0000    0.50610   0.32490   0.55650   Biso      1.000     C          0.008659  
         C41       1.0000    0.21110   0.57560   0.28490   Biso      1.000     C          -0.321512           
         C42       1.0000    0.13920   0.48870   0.24180   Biso      1.000     C          -0.286949           
         C43       1.0000    0.06340   0.48550   0.27190   Biso      1.000     C          0.647054  
         C44       1.0000    0.26070   0.41110   0.45470   Biso      1.000     C          -0.004204           
         C45       1.0000    0.32160   0.47930   0.44590   Biso      1.000     C          -0.226158           
         C46       1.0000    0.32490   0.55650   0.50610   Biso      1.000     C          0.009303  
         C47       1.0000    0.22240   0.76790   0.75390   Biso      1.000     C          0.004999  
         C48       1.0000    0.28450   0.59070   0.24860   Biso      1.000     C          0.645109  
         C49       1.0000    0.18040   0.78780   0.81140   Biso      1.000     C          -0.2391   
         C50       1.0000    0.01040   0.33660   0.72130   Biso      1.000     C          -0.005674           
         C51       1.0000    0.00350   0.25170   0.68230   Biso      1.000     C          -0.214051           
         C52       1.0000    0.04390   0.25340   0.62220   Biso      1.000     C          -0.012755           
         C53       1.0000    0.24860   0.28450   0.59070   Biso      1.000     C          0.644958  
         C54       1.0000    0.28490   0.21110   0.57560   Biso      1.000     C          -0.321656           
         C55       1.0000    0.24180   0.13920   0.48870   Biso      1.000     C          -0.286157           
         C56       1.0000    0.27190   0.06340   0.48550   Biso      1.000     C          0.646935  
         C57       1.0000    0.12800   0.70460   0.80630   Biso      1.000     C          0.012021  
         C58       1.0000    0.55410   0.67840   0.52070   Biso      1.000     C          -0.226897           
         C59       1.0000    0.25340   0.62220   0.04390   Biso      1.000     C          -0.016907           
         C60       1.0000    0.33660   0.72130   0.01040   Biso      1.000     C          -0.006687           
         C61       1.0000    0.75390   0.22240   0.76790   Biso      1.000     C          0.005082  
         C62       1.0000    0.81140   0.18040   0.78780   Biso      1.000     C          -0.238735           
         C63       1.0000    0.80630   0.12800   0.70460   Biso      1.000     C          0.012027  
         C64       1.0000    0.72130   0.01040   0.33660   Biso      1.000     C          -0.00586  
         C65       1.0000    0.68230   0.00350   0.25170   Biso      1.000     C          -0.213005           
         C66       1.0000    0.62220   0.04390   0.25340   Biso      1.000     C          -0.011945           
         C67       1.0000    0.59070   0.24860   0.28450   Biso      1.000     C          0.645033  
         C68       1.0000    0.25170   0.68230   0.00350   Biso      1.000     C          -0.216148           
         C69       1.0000    0.57560   0.28490   0.21110   Biso      1.000     C          -0.321889           
         C70       1.0000    0.48550   0.27190   0.06340   Biso      1.000     C          0.647296  
         C71       1.0000    0.41110   0.45470   0.26070   Biso      1.000     C          -0.000823           
         C72       1.0000    0.47930   0.44590   0.32160   Biso      1.000     C          -0.22358  
         C73       1.0000    0.55650   0.50610   0.32490   Biso      1.000     C          0.010904  
         C74       1.0000    0.76790   0.75390   0.22240   Biso      1.000     C          0.002204  
         C75       1.0000    0.78780   0.81140   0.18040   Biso      1.000     C          -0.240262           
         C76       1.0000    0.70460   0.80630   0.12800   Biso      1.000     C          0.013874  
         C77       1.0000    0.48870   0.24180   0.13920   Biso      1.000     C          -0.28698  
         C78       1.0000    0.54530   0.73930   0.58890   Biso      1.000     C          -0.004146           
         Cu1       1.0000    0.43470   0.84992   0.61390   Biso      1.000     Cu          0.709211  
         Cu2       1.0000    0.23295   0.60993   0.62868   Biso      1.000     Cu          0.730337  
         Cu3       1.0000    0.08806   0.51409   0.71224   Biso      1.000     Cu          0.729835  
         Cu4       1.0000    0.15008   0.38610   0.56530   Biso      1.000     Cu          0.709808  
         Cu5       1.0000    0.51409   0.71224   0.08806   Biso      1.000     Cu          0.71859   
         Cu6       1.0000    0.60993   0.62868   0.23295   Biso      1.000     Cu          0.739117  
         Cu7       1.0000    0.38610   0.56530   0.15008   Biso      1.000     Cu          0.718452  
         Cu8       1.0000    0.62868   0.23295   0.60993   Biso      1.000     Cu          0.730276  
         Cu9       1.0000    0.56530   0.15008   0.38610   Biso      1.000     Cu          0.709262  
         Cu10      1.0000    0.71224   0.08806   0.51409   Biso      1.000     Cu          0.729562  
         Cu11      1.0000    0.76705   0.39007   0.37132   Biso      1.000     Cu          0.736909  
         Cu12      1.0000    0.84992   0.61390   0.43470   Biso      1.000     Cu          0.715855  
         Cu13      1.0000    0.48591   0.28776   0.91194   Biso      1.000     Cu          0.717882  
         Cu14      1.0000    0.39007   0.37132   0.76705   Biso      1.000     Cu          0.73669   
         Cu15      1.0000    0.61390   0.43470   0.84992   Biso      1.000     Cu          0.716374  
         Cu16      1.0000    0.28776   0.91194   0.48591   Biso      1.000     Cu          0.729547  
         Cu17      1.0000    0.37132   0.76705   0.39007   Biso      1.000     Cu          0.730799  
         Cu18      1.0000    0.91194   0.48591   0.28776   Biso      1.000     Cu          0.718435  
         H1        1.0000    0.76180   0.41420   0.65130   Biso      1.000     H          0.130677  
         H2        1.0000    0.15520   0.15330   0.81440   Biso      1.000     H          0.138284  
         H3        1.0000    0.30460   0.16240   0.91090   Biso      1.000     H          0.114146  
         H4        1.0000    0.64400   0.23440   0.01250   Biso      1.000     H          0.113309  
         H5        1.0000    0.79860   0.30560   0.02400   Biso      1.000     H          0.132219  
         H6        1.0000    0.79650   0.41630   0.95140   Biso      1.000     H          0.116656  
         H7        1.0000    0.81520   0.37880   0.71850   Biso      1.000     H          0.137605  
         H8        1.0000    0.69540   0.83760   0.08910   Biso      1.000     H          0.114057  
         H9        1.0000    0.88240   0.52660   0.82330   Biso      1.000     H          0.125609  
         H10       1.0000    0.50290   0.43520   0.91380   Biso      1.000     H          0.37387   
         H11       1.0000    0.75590   0.65040   0.57760   Biso      1.000     H          0.112373  
         H12       1.0000    0.64620   0.52560   0.59250   Biso      1.000     H          0.130794  
         H13       1.0000    0.63880   0.38480   0.48360   Biso      1.000     H          0.104861  
         H14       1.0000    0.18940   0.25840   0.73780   Biso      1.000     H          0.103158  
         H15       1.0000    0.83750   0.55660   0.74550   Biso      1.000     H          0.131194  
         H16       1.0000    0.38480   0.48360   0.63880   Biso      1.000     H          0.104711  
         H17       1.0000    0.30560   0.02400   0.79860   Biso      1.000     H          0.132601  
         H18       1.0000    0.65040   0.57760   0.75590   Biso      1.000     H          0.112121  
         H19       1.0000    0.84480   0.84670   0.18560   Biso      1.000     H          0.13822   
         H20       1.0000    0.59250   0.64620   0.52560   Biso      1.000     H          0.130124  
         H21       1.0000    0.48360   0.63880   0.38480   Biso      1.000     H          0.104004  
         H22       1.0000    0.25840   0.73780   0.18940   Biso      1.000     H          0.103827  
         H23       1.0000    0.15330   0.81440   0.15520   Biso      1.000     H          0.138548  
         H24       1.0000    0.16240   0.91090   0.30460   Biso      1.000     H          0.113825  
         H25       1.0000    0.52560   0.59250   0.64620   Biso      1.000     H          0.130758  
         H26       1.0000    0.23440   0.01250   0.64400   Biso      1.000     H          0.113028  
         H27       1.0000    0.41630   0.95140   0.79650   Biso      1.000     H          0.117522  
         H28       1.0000    0.41420   0.65130   0.76180   Biso      1.000     H          0.130172  
         H29       1.0000    0.37880   0.71850   0.81520   Biso      1.000     H          0.137355  
         H30       1.0000    0.55660   0.74550   0.83750   Biso      1.000     H          0.130299  
         H31       1.0000    0.52660   0.82330   0.88240   Biso      1.000     H          0.124934  
         H32       1.0000    0.43520   0.91380   0.50290   Biso      1.000     H          0.37322   
         H33       1.0000    0.73780   0.18940   0.25840   Biso      1.000     H          0.103234  
         H34       1.0000    0.81440   0.15520   0.15330   Biso      1.000     H          0.138595  
         H35       1.0000    0.57760   0.75590   0.65040   Biso      1.000     H          0.112286  
         H36       1.0000    0.01250   0.64400   0.23440   Biso      1.000     H          0.113358  
         H37       1.0000    0.08620   0.49710   0.56480   Biso      1.000     H          0.373399  
         H38       1.0000    0.17670   0.11760   0.47340   Biso      1.000     H          0.125299  
         H39       1.0000    0.25450   0.16250   0.44340   Biso      1.000     H          0.131488  
         H40       1.0000    0.28150   0.18480   0.62120   Biso      1.000     H          0.13766   
         H41       1.0000    0.34870   0.23820   0.58580   Biso      1.000     H          0.130532  
         H42       1.0000    0.04860   0.20350   0.58370   Biso      1.000     H          0.117163  
         H43       1.0000    0.98750   0.35600   0.76560   Biso      1.000     H          0.113074  
         H44       1.0000    0.08910   0.69540   0.83760   Biso      1.000     H          0.11378   
         H45       1.0000    0.18560   0.84480   0.84670   Biso      1.000     H          0.138609  
         H46       1.0000    0.26220   0.81060   0.74160   Biso      1.000     H          0.10351   
         H47       1.0000    0.81060   0.74160   0.26220   Biso      1.000     H          0.102754  
         H48       1.0000    0.36120   0.61520   0.51640   Biso      1.000     H          0.104582  
         H49       1.0000    0.24410   0.34960   0.42240   Biso      1.000     H          0.112202  
         H50       1.0000    0.49710   0.56480   0.08620   Biso      1.000     H          0.374197  
         H51       1.0000    0.11760   0.47340   0.17670   Biso      1.000     H          0.124862  
         H52       1.0000    0.16250   0.44340   0.25450   Biso      1.000     H          0.130494  
         H53       1.0000    0.18480   0.62120   0.28150   Biso      1.000     H          0.137391  
         H54       1.0000    0.23820   0.58580   0.34870   Biso      1.000     H          0.130789  
         H55       1.0000    0.20350   0.58370   0.04860   Biso      1.000     H          0.116886  
         H56       1.0000    0.20140   0.69440   0.97600   Biso      1.000     H          0.131932  
         H57       1.0000    0.35600   0.76560   0.98750   Biso      1.000     H          0.113318  
         H58       1.0000    0.91090   0.30460   0.16240   Biso      1.000     H          0.114224  
         H59       1.0000    0.35380   0.47440   0.40750   Biso      1.000     H          0.130353  
         H60       1.0000    0.61520   0.51640   0.36120   Biso      1.000     H          0.103949  
         H61       1.0000    0.97600   0.20140   0.69440   Biso      1.000     H          0.132152  
         H62       1.0000    0.34960   0.42240   0.24410   Biso      1.000     H          0.11273   
         H63       1.0000    0.02400   0.79860   0.30560   Biso      1.000     H          0.132009  
         H64       1.0000    0.95140   0.79650   0.41630   Biso      1.000     H          0.116615  
         H65       1.0000    0.65130   0.76180   0.41420   Biso      1.000     H          0.131227  
         H66       1.0000    0.47440   0.40750   0.35380   Biso      1.000     H          0.130788  
         H67       1.0000    0.74550   0.83750   0.55660   Biso      1.000     H          0.131477  
         H68       1.0000    0.82330   0.88240   0.52660   Biso      1.000     H          0.125396  
         H69       1.0000    0.91380   0.50290   0.43520   Biso      1.000     H          0.373871  
         H70       1.0000    0.42240   0.24410   0.34960   Biso      1.000     H          0.112404  
         H71       1.0000    0.40750   0.35380   0.47440   Biso      1.000     H          0.130661  
         H72       1.0000    0.51640   0.36120   0.61520   Biso      1.000     H          0.104119  
         H73       1.0000    0.74160   0.26220   0.81060   Biso      1.000     H          0.103531  
         H74       1.0000    0.71850   0.81520   0.37880   Biso      1.000     H          0.138077  
         H75       1.0000    0.83760   0.08910   0.69540   Biso      1.000     H          0.113787  
         H76       1.0000    0.84670   0.18560   0.84480   Biso      1.000     H          0.138727  
         H77       1.0000    0.47340   0.17670   0.11760   Biso      1.000     H          0.125032  
         H78       1.0000    0.62120   0.28150   0.18480   Biso      1.000     H          0.137853  
         H79       1.0000    0.58580   0.34870   0.23820   Biso      1.000     H          0.129871  
         H80       1.0000    0.44340   0.25450   0.16250   Biso      1.000     H          0.130245  
         H81       1.0000    0.58370   0.04860   0.20350   Biso      1.000     H          0.117534  
         H82       1.0000    0.69440   0.97600   0.20140   Biso      1.000     H          0.13261   
         H83       1.0000    0.76560   0.98750   0.35600   Biso      1.000     H          0.11291   
         H84       1.0000    0.56480   0.08620   0.49710   Biso      1.000     H          0.373493  
         N1        1.0000    0.71710   0.19940   0.67920   Biso      1.000     N          -0.229263           
         N2        1.0000    0.67920   0.71710   0.19940   Biso      1.000     N          -0.226264           
         N3        1.0000    0.68710   0.05500   0.38890   Biso      1.000     N          -0.179185           
         N4        1.0000    0.62670   0.07590   0.33810   Biso      1.000     N          -0.204114           
         N5        1.0000    0.44450   0.51530   0.22850   Biso      1.000     N          -0.19802  
         N6        1.0000    0.53470   0.54740   0.26850   Biso      1.000     N          -0.203556           
         N7        1.0000    0.75140   0.14100   0.64120   Biso      1.000     N          -0.181563           
         N8        1.0000    0.26850   0.53470   0.54740   Biso      1.000     N          -0.206246           
         N9        1.0000    0.38890   0.68710   0.05500   Biso      1.000     N          -0.18326  
         N10       1.0000    0.33810   0.62670   0.07590   Biso      1.000     N          -0.205365           
         N11       1.0000    0.22850   0.44450   0.51530   Biso      1.000     N          -0.198425           
         N12       1.0000    0.19940   0.67920   0.71710   Biso      1.000     N          -0.228805           
         N13       1.0000    0.14100   0.64120   0.75140   Biso      1.000     N          -0.18142  
         N14       1.0000    0.05500   0.38890   0.68710   Biso      1.000     N          -0.178756           
         N15       1.0000    0.07590   0.33810   0.62670   Biso      1.000     N          -0.203881           
         N16       1.0000    0.54740   0.26850   0.53470   Biso      1.000     N          -0.206762           
         N17       1.0000    0.64120   0.75140   0.14100   Biso      1.000     N          -0.185413           
         N18       1.0000    0.51530   0.22850   0.44450   Biso      1.000     N          -0.198406           
         N19       1.0000    0.32080   0.28290   0.80060   Biso      1.000     N          -0.229579           
         N20       1.0000    0.94500   0.61110   0.31290   Biso      1.000     N          -0.182476           
         N21       1.0000    0.92410   0.66190   0.37330   Biso      1.000     N          -0.200257           
         N22       1.0000    0.45260   0.73150   0.46530   Biso      1.000     N          -0.206123           
         N23       1.0000    0.28290   0.80060   0.32080   Biso      1.000     N          -0.228979           
         N24       1.0000    0.24860   0.85900   0.35880   Biso      1.000     N          -0.181441           
         N25       1.0000    0.31290   0.94500   0.61110   Biso      1.000     N          -0.179048           
         N26       1.0000    0.37330   0.92410   0.66190   Biso      1.000     N          -0.203924           
         N27       1.0000    0.55550   0.48470   0.77150   Biso      1.000     N          -0.194829           
         N28       1.0000    0.48470   0.77150   0.55550   Biso      1.000     N          -0.197933           
         N29       1.0000    0.35880   0.24860   0.85900   Biso      1.000     N          -0.184638           
         N30       1.0000    0.61110   0.31290   0.94500   Biso      1.000     N          -0.182878           
         N31       1.0000    0.66190   0.37330   0.92410   Biso      1.000     N          -0.200187           
         N32       1.0000    0.77150   0.55550   0.48470   Biso      1.000     N          -0.195413           
         N33       1.0000    0.73150   0.46530   0.45260   Biso      1.000     N          -0.206466           
         N34       1.0000    0.80060   0.32080   0.28290   Biso      1.000     N          -0.229659           
         N35       1.0000    0.46530   0.45260   0.73150   Biso      1.000     N          -0.206439           
         N36       1.0000    0.85900   0.35880   0.24860   Biso      1.000     N          -0.184626           
         O1        1.0000    0.66400   0.28530   0.35030   Biso      1.000     O          -0.558845           
         O2        1.0000    0.47370   0.21510   0.98830   Biso      1.000     O          -0.546883           
         O3        1.0000    0.49630   0.35000   0.07440   Biso      1.000     O          -0.606033           
         O4        1.0000    0.61590   0.13670   0.50170   Biso      1.000     O          -0.744367           
         O5        1.0000    0.27800   0.53030   0.18080   Biso      1.000     O          -0.491398           
         O6        1.0000    0.50170   0.61590   0.13670   Biso      1.000     O          -0.746258           
         O7        1.0000    0.98830   0.47370   0.21510   Biso      1.000     O          -0.546501           
         O8        1.0000    0.07440   0.49630   0.35000   Biso      1.000     O          -0.605122           
         O9        1.0000    0.18080   0.27800   0.53030   Biso      1.000     O          -0.49324  
         O10       1.0000    0.28530   0.35030   0.66400   Biso      1.000     O          -0.558212           
         O11       1.0000    0.21510   0.98830   0.47370   Biso      1.000     O          -0.54029  
         O12       1.0000    0.53030   0.18080   0.27800   Biso      1.000     O          -0.49242  
         O13       1.0000    0.35030   0.66400   0.28530   Biso      1.000     O          -0.560715           
         O14       1.0000    0.86330   0.49830   0.38410   Biso      1.000     O          -0.744912           
         O15       1.0000    0.64970   0.33600   0.71470   Biso      1.000     O          -0.55977  
         O16       1.0000    0.78490   0.01170   0.52630   Biso      1.000     O          -0.540336           
         O17       1.0000    0.71470   0.64970   0.33600   Biso      1.000     O          -0.557306           
         O18       1.0000    0.81920   0.72200   0.46970   Biso      1.000     O          -0.48938  
         O19       1.0000    0.49830   0.38410   0.86330   Biso      1.000     O          -0.744999           
         O20       1.0000    0.92560   0.50370   0.65000   Biso      1.000     O          -0.603562           
         O21       1.0000    0.01170   0.52630   0.78490   Biso      1.000     O          -0.540092           
         O22       1.0000    0.72200   0.46970   0.81920   Biso      1.000     O          -0.490863           
         O23       1.0000    0.38410   0.86330   0.49830   Biso      1.000     O          -0.744301           
         O24       1.0000    0.50370   0.65000   0.92560   Biso      1.000     O          -0.605871           
         O25       1.0000    0.52630   0.78490   0.01170   Biso      1.000     O          -0.546164           
         O26       1.0000    0.33600   0.71470   0.64970   Biso      1.000     O          -0.55962  
         O27       1.0000    0.46970   0.81920   0.72200   Biso      1.000     O          -0.493729           
         O28       1.0000    0.35000   0.07440   0.49630   Biso      1.000     O          -0.602843           
         O29       1.0000    0.65000   0.92560   0.50370   Biso      1.000     O          -0.602205           
         O30       1.0000    0.13670   0.50170   0.61590   Biso      1.000     O          -0.744672 