
##########################################################################
#               Crystallographic Information Format file
#               Produced by PyCifRW module
#
#  This is a CIF file.  CIF has been adopted by the International
#  Union of Crystallography as the standard for data archiving and
#  transmission.
#
#  For information on this file format, follow the CIF links at
#  http://www.iucr.org
##########################################################################

data_image0

_cell_length_a                          16.7585
_cell_length_b                          16.7585
_cell_length_c                          16.7585
_cell_angle_alpha                       105.192
_cell_angle_beta                        105.192
_cell_angle_gamma                       105.192
_symmetry_space_group_name_H-M          'P 1'
_symmetry_int_tables_number             1
loop_
  _symmetry_equiv_pos_as_xyz
         'x, y, z' 
loop_
  _atom_site_label
  _atom_site_occupancy
  _atom_site_fract_x
  _atom_site_fract_y
  _atom_site_fract_z
  _atom_site_thermal_displace_type
  _atom_site_B_iso_or_equiv
  _atom_site_type_symbol
  _atom_site_charge
         C1        1.0000    0.74880   0.33680   0.00630   Biso      1.000     C          -0.236707           
         C2        1.0000    0.79430   0.42800   0.72410   Biso      1.000     C          -0.322544           
         C3        1.0000    0.86250   0.51130   0.75980   Biso      1.000     C          -0.297721           
         C4        1.0000    0.93680   0.51360   0.72670   Biso      1.000     C          0.667795  
         C5        1.0000    0.74010   0.58370   0.54370   Biso      1.000     C          -0.008206           
         C6        1.0000    0.67760   0.51590   0.55280   Biso      1.000     C          -0.22144  
         C7        1.0000    0.67360   0.44070   0.49310   Biso      1.000     C          0.001287  
         C8        1.0000    0.78050   0.22900   0.25230   Biso      1.000     C          -0.00227  
         C9        1.0000    0.83220   0.21150   0.19980   Biso      1.000     C          -0.235458           
         C10       1.0000    0.87970   0.29500   0.20140   Biso      1.000     C          0.003674  
         C11       1.0000    0.99840   0.66220   0.28940   Biso      1.000     C          0.003089  
         C12       1.0000    0.00630   0.74880   0.33680   Biso      1.000     C          -0.236937           
         C13       1.0000    0.96120   0.74630   0.39130   Biso      1.000     C          0.019548  
         C14       1.0000    0.75500   0.71520   0.41200   Biso      1.000     C          0.644453  
         C15       1.0000    0.72410   0.79430   0.42800   Biso      1.000     C          -0.322994           
         C16       1.0000    0.75980   0.86250   0.51130   Biso      1.000     C          -0.297626           
         C17       1.0000    0.71520   0.41200   0.75500   Biso      1.000     C          0.644466  
         C18       1.0000    0.74630   0.39130   0.96120   Biso      1.000     C          0.019796  
         C19       1.0000    0.66220   0.28940   0.99840   Biso      1.000     C          0.003084  
         C20       1.0000    0.29500   0.20140   0.87970   Biso      1.000     C          0.003501  
         C21       1.0000    0.49310   0.67360   0.44070   Biso      1.000     C          0.001424  
         C22       1.0000    0.25230   0.78050   0.22900   Biso      1.000     C          -0.001985           
         C23       1.0000    0.19980   0.83220   0.21150   Biso      1.000     C          -0.235678           
         C24       1.0000    0.20140   0.87970   0.29500   Biso      1.000     C          0.003437  
         C25       1.0000    0.28940   0.99840   0.66220   Biso      1.000     C          0.003065  
         C26       1.0000    0.33680   0.00630   0.74880   Biso      1.000     C          -0.237014           
         C27       1.0000    0.39130   0.96120   0.74630   Biso      1.000     C          0.019539  
         C28       1.0000    0.72670   0.93680   0.51360   Biso      1.000     C          0.667756  
         C29       1.0000    0.41200   0.75500   0.71520   Biso      1.000     C          0.644418  
         C30       1.0000    0.51130   0.75980   0.86250   Biso      1.000     C          -0.297493           
         C31       1.0000    0.51360   0.72670   0.93680   Biso      1.000     C          0.667783  
         C32       1.0000    0.58370   0.54370   0.74010   Biso      1.000     C          -0.008247           
         C33       1.0000    0.51590   0.55280   0.67760   Biso      1.000     C          -0.221567           
         C34       1.0000    0.44070   0.49310   0.67360   Biso      1.000     C          0.001572  
         C35       1.0000    0.22900   0.25230   0.78050   Biso      1.000     C          -0.001675           
         C36       1.0000    0.21150   0.19980   0.83220   Biso      1.000     C          -0.235427           
         C37       1.0000    0.42800   0.72410   0.79430   Biso      1.000     C          -0.322938           
         C38       1.0000    0.45630   0.25990   0.41630   Biso      1.000     C          -0.008917           
         C39       1.0000    0.44720   0.32240   0.48410   Biso      1.000     C          -0.221389           
         C40       1.0000    0.50690   0.32640   0.55930   Biso      1.000     C          0.00252   
         C41       1.0000    0.20570   0.57200   0.27590   Biso      1.000     C          -0.322974           
         C42       1.0000    0.13750   0.48870   0.24020   Biso      1.000     C          -0.29745  
         C43       1.0000    0.06320   0.48640   0.27330   Biso      1.000     C          0.667684  
         C44       1.0000    0.25990   0.41630   0.45630   Biso      1.000     C          -0.008613           
         C45       1.0000    0.32240   0.48410   0.44720   Biso      1.000     C          -0.221846           
         C46       1.0000    0.32640   0.55930   0.50690   Biso      1.000     C          0.001368  
         C47       1.0000    0.21950   0.77100   0.74770   Biso      1.000     C          -0.002209           
         C48       1.0000    0.28480   0.58800   0.24500   Biso      1.000     C          0.644469  
         C49       1.0000    0.16780   0.78850   0.80020   Biso      1.000     C          -0.235872           
         C50       1.0000    0.00160   0.33780   0.71060   Biso      1.000     C          0.003114  
         C51       1.0000    0.99370   0.25120   0.66320   Biso      1.000     C          -0.23694  
         C52       1.0000    0.03880   0.25370   0.60870   Biso      1.000     C          0.019149  
         C53       1.0000    0.24500   0.28480   0.58800   Biso      1.000     C          0.64441   
         C54       1.0000    0.27590   0.20570   0.57200   Biso      1.000     C          -0.323014           
         C55       1.0000    0.24020   0.13750   0.48870   Biso      1.000     C          -0.29747  
         C56       1.0000    0.27330   0.06320   0.48640   Biso      1.000     C          0.66773   
         C57       1.0000    0.12030   0.70500   0.79860   Biso      1.000     C          0.00344   
         C58       1.0000    0.55280   0.67760   0.51590   Biso      1.000     C          -0.22163  
         C59       1.0000    0.25370   0.60870   0.03880   Biso      1.000     C          0.01949   
         C60       1.0000    0.33780   0.71060   0.00160   Biso      1.000     C          0.003042  
         C61       1.0000    0.74770   0.21950   0.77100   Biso      1.000     C          -0.004086           
         C62       1.0000    0.80020   0.16780   0.78850   Biso      1.000     C          -0.236177           
         C63       1.0000    0.79860   0.12030   0.70500   Biso      1.000     C          0.001705  
         C64       1.0000    0.71060   0.00160   0.33780   Biso      1.000     C          0.005379  
         C65       1.0000    0.66320   0.99370   0.25120   Biso      1.000     C          -0.236297           
         C66       1.0000    0.60870   0.03880   0.25370   Biso      1.000     C          0.020011  
         C67       1.0000    0.58800   0.24500   0.28480   Biso      1.000     C          0.644417  
         C68       1.0000    0.25120   0.66320   0.99370   Biso      1.000     C          -0.236784           
         C69       1.0000    0.57200   0.27590   0.20570   Biso      1.000     C          -0.322406           
         C70       1.0000    0.48640   0.27330   0.06320   Biso      1.000     C          0.667643  
         C71       1.0000    0.41630   0.45630   0.25990   Biso      1.000     C          -0.008388           
         C72       1.0000    0.48410   0.44720   0.32240   Biso      1.000     C          -0.221863           
         C73       1.0000    0.55930   0.50690   0.32640   Biso      1.000     C          0.00138   
         C74       1.0000    0.77100   0.74770   0.21950   Biso      1.000     C          -0.001891           
         C75       1.0000    0.78850   0.80020   0.16780   Biso      1.000     C          -0.235601           
         C76       1.0000    0.70500   0.79860   0.12030   Biso      1.000     C          0.003472  
         C77       1.0000    0.48870   0.24020   0.13750   Biso      1.000     C          -0.297495           
         C78       1.0000    0.54370   0.74010   0.58370   Biso      1.000     C          -0.008281           
         Cu1       1.0000    0.43289   0.84748   0.60885   Biso      1.000     Cu          0.720204  
         Cu2       1.0000    0.23579   0.61217   0.63194   Biso      1.000     Cu          0.733224  
         Cu3       1.0000    0.09171   0.51532   0.71522   Biso      1.000     Cu          0.750733  
         Cu4       1.0000    0.15252   0.39115   0.56711   Biso      1.000     Cu          0.719802  
         Cu5       1.0000    0.51532   0.71522   0.09171   Biso      1.000     Cu          0.751221  
         Cu6       1.0000    0.61217   0.63194   0.23579   Biso      1.000     Cu          0.733625  
         Cu7       1.0000    0.39115   0.56711   0.15252   Biso      1.000     Cu          0.719985  
         Cu8       1.0000    0.63194   0.23579   0.61217   Biso      1.000     Cu          0.732427  
         Cu9       1.0000    0.56711   0.15252   0.39115   Biso      1.000     Cu          0.723227  
         Cu10      1.0000    0.71522   0.09171   0.51532   Biso      1.000     Cu          0.749033  
         Cu11      1.0000    0.76421   0.38783   0.36806   Biso      1.000     Cu          0.733171  
         Cu12      1.0000    0.84748   0.60885   0.43289   Biso      1.000     Cu          0.720244  
         Cu13      1.0000    0.48468   0.28478   0.90829   Biso      1.000     Cu          0.751728  
         Cu14      1.0000    0.38783   0.36806   0.76421   Biso      1.000     Cu          0.734052  
         Cu15      1.0000    0.60885   0.43289   0.84748   Biso      1.000     Cu          0.720619  
         Cu16      1.0000    0.28478   0.90829   0.48468   Biso      1.000     Cu          0.751384  
         Cu17      1.0000    0.36806   0.76421   0.38783   Biso      1.000     Cu          0.733614  
         Cu18      1.0000    0.90829   0.48468   0.28478   Biso      1.000     Cu          0.751361  
         H1        1.0000    0.77100   0.41340   0.66060   Biso      1.000     H          0.125621  
         H2        1.0000    0.15700   0.17070   0.83420   Biso      1.000     H          0.142391  
         H3        1.0000    0.30380   0.16970   0.91730   Biso      1.000     H          0.113535  
         H4        1.0000    0.64590   0.24730   0.02350   Biso      1.000     H          0.119921  
         H5        1.0000    0.79990   0.33070   0.03840   Biso      1.000     H          0.122043  
         H6        1.0000    0.79410   0.42890   0.95470   Biso      1.000     H          0.127767  
         H7        1.0000    0.82160   0.38540   0.73430   Biso      1.000     H          0.134749  
         H8        1.0000    0.69620   0.83030   0.08270   Biso      1.000     H          0.113571  
         H9        1.0000    0.88550   0.52880   0.82370   Biso      1.000     H          0.124746  
         H10       1.0000    0.49580   0.42380   0.90290   Biso      1.000     H          0.435807  
         H11       1.0000    0.75790   0.64350   0.57650   Biso      1.000     H          0.109566  
         H12       1.0000    0.64610   0.52110   0.59080   Biso      1.000     H          0.130447  
         H13       1.0000    0.63790   0.38340   0.48230   Biso      1.000     H          0.104265  
         H14       1.0000    0.18730   0.26250   0.73940   Biso      1.000     H          0.116555  
         H15       1.0000    0.83790   0.55440   0.74580   Biso      1.000     H          0.132384  
         H16       1.0000    0.38340   0.48230   0.63790   Biso      1.000     H          0.10451   
         H17       1.0000    0.33070   0.03840   0.79990   Biso      1.000     H          0.12193   
         H18       1.0000    0.64350   0.57650   0.75790   Biso      1.000     H          0.109571  
         H19       1.0000    0.84300   0.82930   0.16580   Biso      1.000     H          0.142294  
         H20       1.0000    0.59080   0.64610   0.52110   Biso      1.000     H          0.130391  
         H21       1.0000    0.48230   0.63790   0.38340   Biso      1.000     H          0.104402  
         H22       1.0000    0.26250   0.73940   0.18730   Biso      1.000     H          0.116468  
         H23       1.0000    0.17070   0.83420   0.15700   Biso      1.000     H          0.142286  
         H24       1.0000    0.16970   0.91730   0.30380   Biso      1.000     H          0.113561  
         H25       1.0000    0.52110   0.59080   0.64610   Biso      1.000     H          0.130486  
         H26       1.0000    0.24730   0.02350   0.64590   Biso      1.000     H          0.119964  
         H27       1.0000    0.42890   0.95470   0.79410   Biso      1.000     H          0.127644  
         H28       1.0000    0.41340   0.66060   0.77100   Biso      1.000     H          0.125681  
         H29       1.0000    0.38540   0.73430   0.82160   Biso      1.000     H          0.134552  
         H30       1.0000    0.55440   0.74580   0.83790   Biso      1.000     H          0.132559  
         H31       1.0000    0.52880   0.82370   0.88550   Biso      1.000     H          0.124816  
         H32       1.0000    0.42380   0.90290   0.49580   Biso      1.000     H          0.43578   
         H33       1.0000    0.73940   0.18730   0.26250   Biso      1.000     H          0.116224  
         H34       1.0000    0.83420   0.15700   0.17070   Biso      1.000     H          0.142318  
         H35       1.0000    0.57650   0.75790   0.64350   Biso      1.000     H          0.109508  
         H36       1.0000    0.02350   0.64590   0.24730   Biso      1.000     H          0.119988  
         H37       1.0000    0.09710   0.50420   0.57620   Biso      1.000     H          0.435647  
         H38       1.0000    0.17630   0.11450   0.47120   Biso      1.000     H          0.124874  
         H39       1.0000    0.25420   0.16210   0.44560   Biso      1.000     H          0.132467  
         H40       1.0000    0.26570   0.17840   0.61460   Biso      1.000     H          0.134545  
         H41       1.0000    0.33940   0.22900   0.58660   Biso      1.000     H          0.125656  
         H42       1.0000    0.04530   0.20590   0.57110   Biso      1.000     H          0.127561  
         H43       1.0000    0.97650   0.35410   0.75270   Biso      1.000     H          0.119983  
         H44       1.0000    0.08270   0.69620   0.83030   Biso      1.000     H          0.113512  
         H45       1.0000    0.16580   0.84300   0.82930   Biso      1.000     H          0.142158  
         H46       1.0000    0.26060   0.81270   0.73750   Biso      1.000     H          0.116375  
         H47       1.0000    0.81270   0.73750   0.26060   Biso      1.000     H          0.116471  
         H48       1.0000    0.36210   0.61660   0.51770   Biso      1.000     H          0.104402  
         H49       1.0000    0.24210   0.35650   0.42350   Biso      1.000     H          0.109406  
         H50       1.0000    0.50420   0.57620   0.09710   Biso      1.000     H          0.435743  
         H51       1.0000    0.11450   0.47120   0.17630   Biso      1.000     H          0.124856  
         H52       1.0000    0.16210   0.44560   0.25420   Biso      1.000     H          0.132563  
         H53       1.0000    0.17840   0.61460   0.26570   Biso      1.000     H          0.134542  
         H54       1.0000    0.22900   0.58660   0.33940   Biso      1.000     H          0.125726  
         H55       1.0000    0.20590   0.57110   0.04530   Biso      1.000     H          0.127695  
         H56       1.0000    0.20010   0.66930   0.96160   Biso      1.000     H          0.12205   
         H57       1.0000    0.35410   0.75270   0.97650   Biso      1.000     H          0.119969  
         H58       1.0000    0.91730   0.30380   0.16970   Biso      1.000     H          0.113637  
         H59       1.0000    0.35390   0.47890   0.40920   Biso      1.000     H          0.130355  
         H60       1.0000    0.61660   0.51770   0.36210   Biso      1.000     H          0.104417  
         H61       1.0000    0.96160   0.20010   0.66930   Biso      1.000     H          0.122034  
         H62       1.0000    0.35650   0.42350   0.24210   Biso      1.000     H          0.109505  
         H63       1.0000    0.03840   0.79990   0.33070   Biso      1.000     H          0.121996  
         H64       1.0000    0.95470   0.79410   0.42890   Biso      1.000     H          0.127713  
         H65       1.0000    0.66060   0.77100   0.41340   Biso      1.000     H          0.12564   
         H66       1.0000    0.47890   0.40920   0.35390   Biso      1.000     H          0.130318  
         H67       1.0000    0.74580   0.83790   0.55440   Biso      1.000     H          0.132391  
         H68       1.0000    0.82370   0.88550   0.52880   Biso      1.000     H          0.124786  
         H69       1.0000    0.90290   0.49580   0.42380   Biso      1.000     H          0.435857  
         H70       1.0000    0.42350   0.24210   0.35650   Biso      1.000     H          0.109452  
         H71       1.0000    0.40920   0.35390   0.47890   Biso      1.000     H          0.130521  
         H72       1.0000    0.51770   0.36210   0.61660   Biso      1.000     H          0.104567  
         H73       1.0000    0.73750   0.26060   0.81270   Biso      1.000     H          0.116662  
         H74       1.0000    0.73430   0.82160   0.38540   Biso      1.000     H          0.134491  
         H75       1.0000    0.83030   0.08270   0.69620   Biso      1.000     H          0.113585  
         H76       1.0000    0.82930   0.16580   0.84300   Biso      1.000     H          0.142415  
         H77       1.0000    0.47120   0.17630   0.11450   Biso      1.000     H          0.124951  
         H78       1.0000    0.61460   0.26570   0.17840   Biso      1.000     H          0.134933  
         H79       1.0000    0.58660   0.33940   0.22900   Biso      1.000     H          0.126047  
         H80       1.0000    0.44560   0.25420   0.16210   Biso      1.000     H          0.132689  
         H81       1.0000    0.57110   0.04530   0.20590   Biso      1.000     H          0.127232  
         H82       1.0000    0.66930   0.96160   0.20010   Biso      1.000     H          0.121489  
         H83       1.0000    0.75270   0.97650   0.35410   Biso      1.000     H          0.119857  
         H84       1.0000    0.57620   0.09710   0.50420   Biso      1.000     H          0.435697  
         N1        1.0000    0.71530   0.19750   0.68200   Biso      1.000     N          -0.219513           
         N2        1.0000    0.68200   0.71530   0.19750   Biso      1.000     N          -0.21731  
         N3        1.0000    0.68320   0.05230   0.39130   Biso      1.000     N          -0.201959           
         N4        1.0000    0.61870   0.07180   0.33640   Biso      1.000     N          -0.214202           
         N5        1.0000    0.44860   0.51690   0.23000   Biso      1.000     N          -0.168461           
         N6        1.0000    0.53580   0.54750   0.26940   Biso      1.000     N          -0.209771           
         N7        1.0000    0.74480   0.13580   0.63770   Biso      1.000     N          -0.201031           
         N8        1.0000    0.26940   0.53580   0.54750   Biso      1.000     N          -0.209824           
         N9        1.0000    0.39130   0.68320   0.05230   Biso      1.000     N          -0.201447           
         N10       1.0000    0.33640   0.61870   0.07180   Biso      1.000     N          -0.217145           
         N11       1.0000    0.23000   0.44860   0.51690   Biso      1.000     N          -0.168441           
         N12       1.0000    0.19750   0.68200   0.71530   Biso      1.000     N          -0.217326           
         N13       1.0000    0.13580   0.63770   0.74480   Biso      1.000     N          -0.201191           
         N14       1.0000    0.05230   0.39130   0.68320   Biso      1.000     N          -0.201433           
         N15       1.0000    0.07180   0.33640   0.61870   Biso      1.000     N          -0.217286           
         N16       1.0000    0.54750   0.26940   0.53580   Biso      1.000     N          -0.212518           
         N17       1.0000    0.63770   0.74480   0.13580   Biso      1.000     N          -0.201287           
         N18       1.0000    0.51690   0.23000   0.44860   Biso      1.000     N          -0.165405           
         N19       1.0000    0.31800   0.28470   0.80250   Biso      1.000     N          -0.217342           
         N20       1.0000    0.94770   0.60870   0.31680   Biso      1.000     N          -0.201385           
         N21       1.0000    0.92820   0.66360   0.38130   Biso      1.000     N          -0.217094           
         N22       1.0000    0.45250   0.73060   0.46420   Biso      1.000     N          -0.20988  
         N23       1.0000    0.28470   0.80250   0.31800   Biso      1.000     N          -0.217351           
         N24       1.0000    0.25520   0.86420   0.36230   Biso      1.000     N          -0.201283           
         N25       1.0000    0.31680   0.94770   0.60870   Biso      1.000     N          -0.20135  
         N26       1.0000    0.38130   0.92820   0.66360   Biso      1.000     N          -0.217021           
         N27       1.0000    0.55140   0.48310   0.77000   Biso      1.000     N          -0.168383           
         N28       1.0000    0.48310   0.77000   0.55140   Biso      1.000     N          -0.168377           
         N29       1.0000    0.36230   0.25520   0.86420   Biso      1.000     N          -0.201397           
         N30       1.0000    0.60870   0.31680   0.94770   Biso      1.000     N          -0.201427           
         N31       1.0000    0.66360   0.38130   0.92820   Biso      1.000     N          -0.216872           
         N32       1.0000    0.77000   0.55140   0.48310   Biso      1.000     N          -0.168396           
         N33       1.0000    0.73060   0.46420   0.45250   Biso      1.000     N          -0.210053           
         N34       1.0000    0.80250   0.31800   0.28470   Biso      1.000     N          -0.217522           
         N35       1.0000    0.46420   0.45250   0.73060   Biso      1.000     N          -0.209917           
         N36       1.0000    0.86420   0.36230   0.25520   Biso      1.000     N          -0.201119           
         O1        1.0000    0.66050   0.28110   0.34630   Biso      1.000     O          -0.555689           
         O2        1.0000    0.47650   0.21880   0.98960   Biso      1.000     O          -0.561052           
         O3        1.0000    0.48960   0.34790   0.07360   Biso      1.000     O          -0.601279           
         O4        1.0000    0.61670   0.13820   0.50690   Biso      1.000     O          -0.829011           
         O5        1.0000    0.28150   0.52760   0.17850   Biso      1.000     O          -0.49552  
         O6        1.0000    0.50690   0.61670   0.13820   Biso      1.000     O          -0.828962           
         O7        1.0000    0.98960   0.47650   0.21880   Biso      1.000     O          -0.561142           
         O8        1.0000    0.07360   0.48960   0.34790   Biso      1.000     O          -0.601337           
         O9        1.0000    0.17850   0.28150   0.52760   Biso      1.000     O          -0.495518           
         O10       1.0000    0.28110   0.34630   0.66050   Biso      1.000     O          -0.556715           
         O11       1.0000    0.21880   0.98960   0.47650   Biso      1.000     O          -0.561157           
         O12       1.0000    0.52760   0.17850   0.28150   Biso      1.000     O          -0.493892           
         O13       1.0000    0.34630   0.66050   0.28110   Biso      1.000     O          -0.556842           
         O14       1.0000    0.86180   0.49310   0.38330   Biso      1.000     O          -0.829014           
         O15       1.0000    0.65370   0.33950   0.71890   Biso      1.000     O          -0.557081           
         O16       1.0000    0.78120   0.01040   0.52350   Biso      1.000     O          -0.562241           
         O17       1.0000    0.71890   0.65370   0.33950   Biso      1.000     O          -0.556968           
         O18       1.0000    0.82150   0.71850   0.47240   Biso      1.000     O          -0.495354           
         O19       1.0000    0.49310   0.38330   0.86180   Biso      1.000     O          -0.829062           
         O20       1.0000    0.92640   0.51040   0.65210   Biso      1.000     O          -0.601928           
         O21       1.0000    0.01040   0.52350   0.78120   Biso      1.000     O          -0.561703           
         O22       1.0000    0.71850   0.47240   0.82150   Biso      1.000     O          -0.495977           
         O23       1.0000    0.38330   0.86180   0.49310   Biso      1.000     O          -0.828974           
         O24       1.0000    0.51040   0.65210   0.92640   Biso      1.000     O          -0.601528           
         O25       1.0000    0.52350   0.78120   0.01040   Biso      1.000     O          -0.5613   
         O26       1.0000    0.33950   0.71890   0.65370   Biso      1.000     O          -0.556916           
         O27       1.0000    0.47240   0.82150   0.71850   Biso      1.000     O          -0.495617           
         O28       1.0000    0.34790   0.07360   0.48960   Biso      1.000     O          -0.601679           
         O29       1.0000    0.65210   0.92640   0.51040   Biso      1.000     O          -0.601775           
         O30       1.0000    0.13820   0.50690   0.61670   Biso      1.000     O          -0.829037 