
##########################################################################
#               Crystallographic Information Format file
#               Produced by PyCifRW module
#
#  This is a CIF file.  CIF has been adopted by the International
#  Union of Crystallography as the standard for data archiving and
#  transmission.
#
#  For information on this file format, follow the CIF links at
#  http://www.iucr.org
##########################################################################

data_image0

_cell_length_a                          9.4003
_cell_length_b                          9.4003
_cell_length_c                          17.35
_cell_angle_alpha                       90
_cell_angle_beta                        90
_cell_angle_gamma                       120
_symmetry_space_group_name_H-M          'P 1'
_symmetry_int_tables_number             1
loop_
  _symmetry_equiv_pos_as_xyz
         'x, y, z' 
loop_
  _atom_site_label
  _atom_site_occupancy
  _atom_site_fract_x
  _atom_site_fract_y
  _atom_site_fract_z
  _atom_site_thermal_displace_type
  _atom_site_B_iso_or_equiv
  _atom_site_type_symbol
  _atom_site_charge
         C1        1.0000    0.81750   0.16590   0.10610   Biso      1.000     C          0.700635  
         C2        1.0000    0.18250   0.34840   0.89390   Biso      1.000     C          0.700646  
         C3        1.0000    0.16590   0.81750   0.89390   Biso      1.000     C          0.700636  
         C4        1.0000    0.30710   0.90710   0.94660   Biso      1.000     C          -0.181306           
         C5        1.0000    0.65160   0.83410   0.60610   Biso      1.000     C          0.700635  
         C6        1.0000    0.60000   0.69290   0.55340   Biso      1.000     C          -0.181306           
         C7        1.0000    0.18250   0.34840   0.60610   Biso      1.000     C          0.700646  
         C8        1.0000    0.09290   0.40000   0.55340   Biso      1.000     C          -0.181308           
         C9        1.0000    0.16590   0.81750   0.60610   Biso      1.000     C          0.700635  
         C10       1.0000    0.30710   0.90710   0.55340   Biso      1.000     C          -0.181306           
         C11       1.0000    0.60000   0.69290   0.94660   Biso      1.000     C          -0.181306           
         C12       1.0000    0.90710   0.30710   0.05340   Biso      1.000     C          -0.181306           
         C13       1.0000    0.69290   0.60000   0.05340   Biso      1.000     C          -0.181308           
         C14       1.0000    0.34840   0.18250   0.10610   Biso      1.000     C          0.700635  
         C15       1.0000    0.40000   0.09290   0.05340   Biso      1.000     C          -0.181306           
         C16       1.0000    0.81750   0.16590   0.39390   Biso      1.000     C          0.700635  
         C17       1.0000    0.90710   0.30710   0.44660   Biso      1.000     C          -0.181306           
         C18       1.0000    0.83410   0.65160   0.39390   Biso      1.000     C          0.700646  
         C19       1.0000    0.69290   0.60000   0.44660   Biso      1.000     C          -0.181307           
         C20       1.0000    0.34840   0.18250   0.39390   Biso      1.000     C          0.700635  
         C21       1.0000    0.40000   0.09290   0.44660   Biso      1.000     C          -0.181306           
         C22       1.0000    0.83410   0.65160   0.10610   Biso      1.000     C          0.700646  
         C23       1.0000    0.65160   0.83410   0.89390   Biso      1.000     C          0.700635  
         C24       1.0000    0.09290   0.40000   0.94660   Biso      1.000     C          -0.181308           
         H1        1.0000    0.67180   0.50150   0.47410   Biso      1.000     H          0.118638  
         H2        1.0000    0.50150   0.67180   0.97410   Biso      1.000     H          0.118637  
         H3        1.0000    0.57540   0.59550   0.91720   Biso      1.000     H          0.130909  
         H4        1.0000    0.17030   0.49850   0.97410   Biso      1.000     H          0.118638  
         H5        1.0000    0.02010   0.42460   0.91720   Biso      1.000     H          0.13091   
         H6        1.0000    0.32820   0.82970   0.97410   Biso      1.000     H          0.118637  
         H7        1.0000    0.97990   0.40450   0.41720   Biso      1.000     H          0.130909  
         H8        1.0000    0.50150   0.67180   0.52590   Biso      1.000     H          0.118637  
         H9        1.0000    0.57540   0.59550   0.58280   Biso      1.000     H          0.130909  
         H10       1.0000    0.17030   0.49850   0.52590   Biso      1.000     H          0.118638  
         H11       1.0000    0.02010   0.42460   0.58280   Biso      1.000     H          0.13091   
         H12       1.0000    0.32820   0.82970   0.52590   Biso      1.000     H          0.118637  
         H13       1.0000    0.40450   0.97990   0.91720   Biso      1.000     H          0.130911  
         H14       1.0000    0.82970   0.32820   0.02590   Biso      1.000     H          0.118637  
         H15       1.0000    0.40450   0.97990   0.58280   Biso      1.000     H          0.130911  
         H16       1.0000    0.59550   0.57540   0.41720   Biso      1.000     H          0.13091   
         H17       1.0000    0.49850   0.17030   0.47410   Biso      1.000     H          0.118637  
         H18       1.0000    0.42460   0.02010   0.41720   Biso      1.000     H          0.130911  
         H19       1.0000    0.42460   0.02010   0.08280   Biso      1.000     H          0.130911  
         H20       1.0000    0.82970   0.32820   0.47410   Biso      1.000     H          0.118637  
         H21       1.0000    0.59550   0.57540   0.08280   Biso      1.000     H          0.13091   
         H22       1.0000    0.67180   0.50150   0.02590   Biso      1.000     H          0.118638  
         H23       1.0000    0.97990   0.40450   0.08280   Biso      1.000     H          0.130909  
         H24       1.0000    0.49850   0.17030   0.02590   Biso      1.000     H          0.118637  
         O1        1.0000    0.82310   0.55270   0.15720   Biso      1.000     O          -0.723823           
         O2        1.0000    0.72960   0.17690   0.34280   Biso      1.000     O          -0.723798           
         O3        1.0000    0.96140   0.78920   0.09650   Biso      1.000     O          -0.619393           
         O4        1.0000    0.21080   0.17220   0.09650   Biso      1.000     O          -0.619399           
         O5        1.0000    0.44730   0.27040   0.15720   Biso      1.000     O          -0.723796           
         O6        1.0000    0.82780   0.03860   0.40350   Biso      1.000     O          -0.619398           
         O7        1.0000    0.96140   0.78920   0.40350   Biso      1.000     O          -0.619393           
         O8        1.0000    0.27150   0.00000   0.00000   Biso      1.000     O          -0.243891           
         O9        1.0000    0.21080   0.17220   0.40350   Biso      1.000     O          -0.619399           
         O10       1.0000    0.44730   0.27040   0.34280   Biso      1.000     O          -0.723796           
         O11       1.0000    0.72850   0.72850   0.50000   Biso      1.000     O          -0.24389  
         O12       1.0000    0.00000   0.27150   0.00000   Biso      1.000     O          -0.24389  
         O13       1.0000    0.72960   0.17690   0.15720   Biso      1.000     O          -0.723798           
         O14       1.0000    0.72850   0.72850   0.00000   Biso      1.000     O          -0.24389  
         O15       1.0000    0.82310   0.55270   0.34280   Biso      1.000     O          -0.723823           
         O16       1.0000    0.82780   0.03860   0.09650   Biso      1.000     O          -0.619398           
         O17       1.0000    0.27150   0.00000   0.50000   Biso      1.000     O          -0.243891           
         O18       1.0000    0.03860   0.82780   0.59650   Biso      1.000     O          -0.619399           
         O19       1.0000    0.00000   0.27150   0.50000   Biso      1.000     O          -0.24389  
         O20       1.0000    0.78920   0.96140   0.90350   Biso      1.000     O          -0.619399           
         O21       1.0000    0.55270   0.82310   0.84280   Biso      1.000     O          -0.723798           
         O22       1.0000    0.17690   0.72960   0.65720   Biso      1.000     O          -0.723796           
         O23       1.0000    0.27040   0.44730   0.84280   Biso      1.000     O          -0.723823           
         O24       1.0000    0.17220   0.21080   0.90350   Biso      1.000     O          -0.619393           
         O25       1.0000    0.17690   0.72960   0.84280   Biso      1.000     O          -0.723796           
         O26       1.0000    0.78920   0.96140   0.59650   Biso      1.000     O          -0.619399           
         O27       1.0000    0.55270   0.82310   0.65720   Biso      1.000     O          -0.723798           
         O28       1.0000    0.17220   0.21080   0.59650   Biso      1.000     O          -0.619393           
         O29       1.0000    0.27040   0.44730   0.65720   Biso      1.000     O          -0.723823           
         O30       1.0000    0.03860   0.82780   0.90350   Biso      1.000     O          -0.619399           
         Pr1       1.0000    0.00000   0.00000   0.50000   Biso      1.000     Pr          1.968892  
         Pr2       1.0000    0.00000   0.00000   0.00000   Biso      1.000     Pr          1.968893  
         Pr3       1.0000    0.66667   0.33334   0.25000   Biso      1.000     Pr          2.208719  
         Pr4       1.0000    0.33333   0.66666   0.75000   Biso      1.000     Pr          2.208719 