
##########################################################################
#               Crystallographic Information Format file
#               Produced by PyCifRW module
#
#  This is a CIF file.  CIF has been adopted by the International
#  Union of Crystallography as the standard for data archiving and
#  transmission.
#
#  For information on this file format, follow the CIF links at
#  http://www.iucr.org
##########################################################################

data_image0

_cell_length_a                          7.7447
_cell_length_b                          10.1935
_cell_length_c                          12.1464
_cell_angle_alpha                       80.751
_cell_angle_beta                        80.287
_cell_angle_gamma                       82.818
_symmetry_space_group_name_H-M          'P 1'
_symmetry_int_tables_number             1
loop_
  _symmetry_equiv_pos_as_xyz
         'x, y, z' 
loop_
  _atom_site_label
  _atom_site_occupancy
  _atom_site_fract_x
  _atom_site_fract_y
  _atom_site_fract_z
  _atom_site_thermal_displace_type
  _atom_site_B_iso_or_equiv
  _atom_site_type_symbol
  _atom_site_charge
         C1        1.0000    0.12380   0.70830   0.71080   Biso      1.000     C          -0.341549           
         C2        1.0000    0.95070   0.88850   0.30710   Biso      1.000     C          0.737438  
         C3        1.0000    0.09120   0.49880   0.46250   Biso      1.000     C          -0.185531           
         C4        1.0000    0.93150   0.79300   0.22840   Biso      1.000     C          -0.348618           
         C5        1.0000    0.04810   0.77440   0.90750   Biso      1.000     C          -0.180355           
         C6        1.0000    0.00260   0.72780   0.03260   Biso      1.000     C          -0.180481           
         C7        1.0000    0.99010   0.83910   0.10530   Biso      1.000     C          -0.14988900000000002          
         C8        1.0000    0.39710   0.37040   0.43290   Biso      1.000     C          -0.34948  
         C9        1.0000    0.22160   0.39130   0.51160   Biso      1.000     C          -0.142599           
         C10       1.0000    0.06850   0.66270   0.83550   Biso      1.000     C          -0.156998           
         C11       1.0000    0.98250   0.79360   0.65160   Biso      1.000     C          0.704508  
         C12       1.0000    0.50680   0.24990   0.48190   Biso      1.000     C          0.702021  
         C13       1.0000    0.49320   0.75010   0.51810   Biso      1.000     C          0.702021  
         C14       1.0000    0.90880   0.50120   0.53750   Biso      1.000     C          -0.185531           
         C15       1.0000    0.06850   0.20700   0.77160   Biso      1.000     C          -0.348618           
         C16       1.0000    0.95190   0.22560   0.09250   Biso      1.000     C          -0.180355           
         C17       1.0000    0.99740   0.27220   0.96740   Biso      1.000     C          -0.18048  
         C18       1.0000    0.00990   0.16090   0.89470   Biso      1.000     C          -0.14988900000000002          
         C19       1.0000    0.60290   0.62960   0.56710   Biso      1.000     C          -0.34948  
         C20       1.0000    0.77840   0.60870   0.48840   Biso      1.000     C          -0.142599           
         C21       1.0000    0.93150   0.33730   0.16450   Biso      1.000     C          -0.156998           
         C22       1.0000    0.87620   0.29170   0.28920   Biso      1.000     C          -0.341549           
         C23       1.0000    0.01750   0.20640   0.34840   Biso      1.000     C          0.704508  
         C24       1.0000    0.04930   0.11150   0.69290   Biso      1.000     C          0.737438  
         H1        1.0000    0.84440   0.40700   0.13830   Biso      1.000     H          0.09522   
         H2        1.0000    0.04260   0.37560   0.15430   Biso      1.000     H          0.096944  
         H3        1.0000    0.83870   0.37000   0.32650   Biso      1.000     H          0.146064  
         H4        1.0000    0.83140   0.69240   0.47060   Biso      1.000     H          0.091769  
         H5        1.0000    0.77530   0.24130   0.29790   Biso      1.000     H          0.140877  
         H6        1.0000    0.62520   0.64200   0.64070   Biso      1.000     H          0.143314  
         H7        1.0000    0.75480   0.58550   0.41840   Biso      1.000     H          0.09176799999999999           
         H8        1.0000    0.89560   0.12770   0.90380   Biso      1.000     H          0.096309  
         H9        1.0000    0.13560   0.58510   0.45530   Biso      1.000     H          0.109376  
         H10       1.0000    0.07910   0.48280   0.38770   Biso      1.000     H          0.095162  
         H11       1.0000    0.80870   0.77660   0.23860   Biso      1.000     H          0.125986  
         H12       1.0000    0.99870   0.70870   0.24990   Biso      1.000     H          0.136166  
         H13       1.0000    0.95630   0.84180   0.88400   Biso      1.000     H          0.101188  
         H14       1.0000    0.15710   0.81600   0.89400   Biso      1.000     H          0.094913  
         H15       1.0000    0.89080   0.68990   0.04650   Biso      1.000     H          0.094702  
         H16       1.0000    0.09140   0.65760   0.05550   Biso      1.000     H          0.093766  
         H17       1.0000    0.90760   0.91230   0.07900   Biso      1.000     H          0.09578099999999999           
         H18       1.0000    0.10440   0.87230   0.09620   Biso      1.000     H          0.096309  
         H19       1.0000    0.46040   0.44880   0.42370   Biso      1.000     H          0.13988599999999998           
         H20       1.0000    0.37480   0.35800   0.35930   Biso      1.000     H          0.143314  
         H21       1.0000    0.53960   0.55120   0.57630   Biso      1.000     H          0.13988599999999998           
         H22       1.0000    0.16860   0.30760   0.52940   Biso      1.000     H          0.091769  
         H23       1.0000    0.24520   0.41450   0.58160   Biso      1.000     H          0.09176799999999999           
         H24       1.0000    0.95740   0.62440   0.84570   Biso      1.000     H          0.096944  
         H25       1.0000    0.16130   0.63000   0.67350   Biso      1.000     H          0.146064  
         H26       1.0000    0.22470   0.75870   0.70210   Biso      1.000     H          0.140877  
         H27       1.0000    0.86440   0.41490   0.54470   Biso      1.000     H          0.109376  
         H28       1.0000    0.92090   0.51720   0.61230   Biso      1.000     H          0.095162  
         H29       1.0000    0.19130   0.22340   0.76140   Biso      1.000     H          0.125986  
         H30       1.0000    0.00130   0.29130   0.75010   Biso      1.000     H          0.136166  
         H31       1.0000    0.04370   0.15820   0.11600   Biso      1.000     H          0.101188  
         H32       1.0000    0.84290   0.18400   0.10600   Biso      1.000     H          0.094914  
         H33       1.0000    0.15560   0.59300   0.86170   Biso      1.000     H          0.09521900000000001           
         H34       1.0000    0.10920   0.31010   0.95350   Biso      1.000     H          0.094702  
         H35       1.0000    0.90860   0.34240   0.94450   Biso      1.000     H          0.093765  
         H36       1.0000    0.09240   0.08770   0.92100   Biso      1.000     H          0.09578099999999999           
         O1        1.0000    0.18850   0.06240   0.63660   Biso      1.000     O          -0.699459           
         O2        1.0000    0.38720   0.73970   0.45480   Biso      1.000     O          -0.6158779999999999           
         O3        1.0000    0.51200   0.86490   0.54200   Biso      1.000     O          -0.8031050000000001           
         O4        1.0000    0.02910   0.85930   0.55440   Biso      1.000     O          -0.777129           
         O5        1.0000    0.17630   0.20130   0.30440   Biso      1.000     O          -0.618764           
         O6        1.0000    0.10310   0.91360   0.31210   Biso      1.000     O          -0.699343           
         O7        1.0000    0.97090   0.14070   0.44560   Biso      1.000     O          -0.777129           
         O8        1.0000    0.48800   0.13510   0.45800   Biso      1.000     O          -0.8031050000000001           
         O9        1.0000    0.61280   0.26030   0.54520   Biso      1.000     O          -0.6158779999999999           
         O10       1.0000    0.81150   0.93760   0.36340   Biso      1.000     O          -0.699459           
         O11       1.0000    0.89690   0.08640   0.68790   Biso      1.000     O          -0.699343           
         O12       1.0000    0.82370   0.79870   0.69560   Biso      1.000     O          -0.618764           
         Pr1       1.0000    0.26092   0.99001   0.44102   Biso      1.000     Pr          2.1160189999999997  
         Pr2       1.0000    0.73908   0.00999   0.55898   Biso      1.000     Pr          2.1160189999999997 