
##########################################################################
#               Crystallographic Information Format file
#               Produced by PyCifRW module
#
#  This is a CIF file.  CIF has been adopted by the International
#  Union of Crystallography as the standard for data archiving and
#  transmission.
#
#  For information on this file format, follow the CIF links at
#  http://www.iucr.org
##########################################################################

data_image0

_cell_length_a                          10.8608
_cell_length_b                          14.8322
_cell_length_c                          14.8322
_cell_angle_alpha                       65.7552
_cell_angle_beta                        75.8724
_cell_angle_gamma                       104.128
_symmetry_space_group_name_H-M          'P 1'
_symmetry_int_tables_number             1
loop_
  _symmetry_equiv_pos_as_xyz
         'x, y, z' 
loop_
  _atom_site_label
  _atom_site_occupancy
  _atom_site_fract_x
  _atom_site_fract_y
  _atom_site_fract_z
  _atom_site_thermal_displace_type
  _atom_site_B_iso_or_equiv
  _atom_site_type_symbol
  _atom_site_charge
         C1        1.0000    0.01880   0.21960   0.53960   Biso      1.000     C          -0.548158           
         C2        1.0000    0.33280   0.60860   0.77550   Biso      1.000     C          -0.546768           
         C3        1.0000    0.91050   0.23690   0.50200   Biso      1.000     C          0.409539  
         C4        1.0000    0.67360   0.76310   0.73890   Biso      1.000     C          0.40712   
         C5        1.0000    0.78240   0.31030   0.43650   Biso      1.000     C          0.414415  
         C6        1.0000    0.72420   0.39140   0.38410   Biso      1.000     C          -0.545003           
         C7        1.0000    0.67360   0.26110   0.23690   Biso      1.000     C          0.40712600000000004           
         C8        1.0000    0.79920   0.24080   0.21960   Biso      1.000     C          -0.5463779999999999           
         C9        1.0000    0.47210   0.25320   0.31030   Biso      1.000     C          0.416075  
         C10       1.0000    0.33280   0.22450   0.39140   Biso      1.000     C          -0.546766           
         C11       1.0000    0.41250   0.50200   0.26110   Biso      1.000     C          0.409144  
         C12       1.0000    0.55840   0.53960   0.24080   Biso      1.000     C          -0.546125           
         C13       1.0000    0.21890   0.43650   0.25320   Biso      1.000     C          0.415649  
         C14       1.0000    0.10830   0.38410   0.22450   Biso      1.000     C          -0.5490430000000001           
         C15       1.0000    0.72420   0.61590   0.60860   Biso      1.000     C          -0.545059           
         C16       1.0000    0.78240   0.56350   0.68970   Biso      1.000     C          0.41443100000000005           
         C17       1.0000    0.01880   0.46040   0.78040   Biso      1.000     C          -0.548154           
         C18       1.0000    0.91050   0.49800   0.76310   Biso      1.000     C          0.409549  
         C19       1.0000    0.10830   0.77550   0.61590   Biso      1.000     C          -0.5490510000000001           
         C20       1.0000    0.21890   0.74680   0.56350   Biso      1.000     C          0.41572   
         C21       1.0000    0.55840   0.75920   0.46040   Biso      1.000     C          -0.546133           
         C22       1.0000    0.41250   0.73890   0.49800   Biso      1.000     C          0.40915   
         C23       1.0000    0.47210   0.68970   0.74680   Biso      1.000     C          0.416079  
         C24       1.0000    0.79920   0.78040   0.75920   Biso      1.000     C          -0.546369           
         Cu1       1.0000    0.03061   0.59340   0.52113   Biso      1.000     Cu          0.696025  
         Cu2       1.0000    0.73541   0.00000   0.59450   Biso      1.000     Cu          0.280131  
         Cu3       1.0000    0.73541   0.40550   0.00000   Biso      1.000     Cu          0.28013299999999997           
         Cu4       1.0000    0.32991   0.59450   0.40550   Biso      1.000     Cu          0.281308  
         Cu5       1.0000    0.03061   0.47887   0.40660   Biso      1.000     Cu          0.69601   
         Cu6       1.0000    0.43721   0.40660   0.11453   Biso      1.000     Cu          0.695094  
         Cu7       1.0000    0.55174   0.11453   0.47887   Biso      1.000     Cu          0.6946979999999999  
         Cu8       1.0000    0.43721   0.88547   0.59340   Biso      1.000     Cu          0.695086  
         Cu9       1.0000    0.55174   0.52113   0.88547   Biso      1.000     Cu          0.694675  
         H1        1.0000    0.52180   0.33140   0.00000   Biso      1.000     H          0.42582   
         H2        1.0000    0.19040   0.66860   0.33140   Biso      1.000     H          0.427066  
         H3        1.0000    0.10250   0.31140   0.24300   Biso      1.000     H          0.17238399999999998           
         H4        1.0000    0.13170   0.42650   0.14720   Biso      1.000     H          0.19678199999999998           
         H5        1.0000    0.01940   0.38100   0.26430   Biso      1.000     H          0.15936199999999998           
         H6        1.0000    0.61130   0.59320   0.16480   Biso      1.000     H          0.180946  
         H7        1.0000    0.58720   0.47880   0.25920   Biso      1.000     H          0.176426  
         H8        1.0000    0.52180   0.00000   0.66860   Biso      1.000     H          0.42583000000000004           
         H9        1.0000    0.34550   0.24300   0.44560   Biso      1.000     H          0.172234  
         H10       1.0000    0.57490   0.71520   0.42810   Biso      1.000     H          0.16306600000000002           
         H11       1.0000    0.58720   0.74080   0.52120   Biso      1.000     H          0.176431  
         H12       1.0000    0.61130   0.83520   0.40680   Biso      1.000     H          0.180945  
         H13       1.0000    0.57490   0.57190   0.28480   Biso      1.000     H          0.163063  
         H14       1.0000    0.13170   0.85280   0.57350   Biso      1.000     H          0.19678299999999999           
         H15       1.0000    0.10250   0.75700   0.68860   Biso      1.000     H          0.17238599999999998           
         H16       1.0000    0.00300   0.42810   0.85670   Biso      1.000     H          0.163294  
         H17       1.0000    0.10840   0.52120   0.73800   Biso      1.000     H          0.176708  
         H18       1.0000    0.01810   0.40680   0.75800   Biso      1.000     H          0.18144100000000002           
         H19       1.0000    0.63840   0.61900   0.64530   Biso      1.000     H          0.15793900000000002           
         H20       1.0000    0.70520   0.57350   0.57370   Biso      1.000     H          0.195391  
         H21       1.0000    0.79110   0.68860   0.55440   Biso      1.000     H          0.171873  
         H22       1.0000    0.85970   0.85670   0.71520   Biso      1.000     H          0.163331  
         H23       1.0000    0.84640   0.73800   0.74080   Biso      1.000     H          0.175926  
         H24       1.0000    0.77610   0.75800   0.83520   Biso      1.000     H          0.181515  
         H25       1.0000    0.01940   0.73570   0.61900   Biso      1.000     H          0.15936199999999998           
         H26       1.0000    0.27890   0.57370   0.85280   Biso      1.000     H          0.196624  
         H27       1.0000    0.28370   0.64530   0.73570   Biso      1.000     H          0.157386  
         H28       1.0000    0.27890   0.14720   0.42630   Biso      1.000     H          0.196621  
         H29       1.0000    0.28370   0.26430   0.35470   Biso      1.000     H          0.157386  
         H30       1.0000    0.84640   0.25920   0.26200   Biso      1.000     H          0.17593499999999998           
         H31       1.0000    0.85970   0.28480   0.14330   Biso      1.000     H          0.163333  
         H32       1.0000    0.79110   0.44560   0.31140   Biso      1.000     H          0.171846  
         H33       1.0000    0.77610   0.16480   0.24200   Biso      1.000     H          0.18151199999999998           
         H34       1.0000    0.63840   0.35470   0.38100   Biso      1.000     H          0.157931  
         H35       1.0000    0.01810   0.24200   0.59320   Biso      1.000     H          0.181444  
         H36       1.0000    0.10840   0.26200   0.47880   Biso      1.000     H          0.17670999999999998           
         H37       1.0000    0.00300   0.14330   0.57190   Biso      1.000     H          0.163296  
         H38       1.0000    0.34550   0.55440   0.75700   Biso      1.000     H          0.172233  
         H39       1.0000    0.70520   0.42630   0.42650   Biso      1.000     H          0.195379  
         N1        1.0000    0.35240   0.45260   0.21320   Biso      1.000     N          -0.44636499999999996          
         N2        1.0000    0.72100   0.20720   0.47050   Biso      1.000     N          -0.29251  
         N3        1.0000    0.19150   0.47050   0.32230   Biso      1.000     N          -0.293545           
         N4        1.0000    0.31900   0.51390   0.32610   Biso      1.000     N          -0.255251           
         N5        1.0000    0.56560   0.21320   0.33420   Biso      1.000     N          -0.44567700000000005          
         N6        1.0000    0.51380   0.32230   0.20720   Biso      1.000     N          -0.293557           
         N7        1.0000    0.64510   0.32610   0.16000   Biso      1.000     N          -0.25390100000000004          
         N8        1.0000    0.89980   0.33420   0.45260   Biso      1.000     N          -0.44626499999999997          
         N9        1.0000    0.80510   0.16000   0.51390   Biso      1.000     N          -0.254718           
         N10       1.0000    0.72100   0.52950   0.79280   Biso      1.000     N          -0.29249899999999995          
         N11       1.0000    0.51380   0.79280   0.67770   Biso      1.000     N          -0.293553           
         N12       1.0000    0.64510   0.84000   0.67390   Biso      1.000     N          -0.253896           
         N13       1.0000    0.89980   0.54740   0.66580   Biso      1.000     N          -0.446272           
         N14       1.0000    0.80510   0.48610   0.84000   Biso      1.000     N          -0.254733           
         N15       1.0000    0.35240   0.78680   0.54740   Biso      1.000     N          -0.44642299999999996          
         N16       1.0000    0.19150   0.67770   0.52950   Biso      1.000     N          -0.293581           
         N17       1.0000    0.31900   0.67390   0.48610   Biso      1.000     N          -0.255243           
         N18       1.0000    0.56560   0.66580   0.78680   Biso      1.000     N          -0.445675           
         O1        1.0000    0.54950   0.00000   0.61250   Biso      1.000     O          -0.824306           
         O2        1.0000    0.16200   0.61250   0.38750   Biso      1.000     O          -0.826377           
         O3        1.0000    0.89750   0.51440   0.48560   Biso      1.000     O          -0.8398760000000001           
         O4        1.0000    0.54950   0.38750   0.00000   Biso      1.000     O          -0.824293           
         O5        1.0000    0.38310   0.48560   0.00000   Biso      1.000     O          -0.839786           
         O6        1.0000    0.38310   0.00000   0.51440   Biso      1.000     O          -0.839783 