
##########################################################################
#               Crystallographic Information Format file
#               Produced by PyCifRW module
#
#  This is a CIF file.  CIF has been adopted by the International
#  Union of Crystallography as the standard for data archiving and
#  transmission.
#
#  For information on this file format, follow the CIF links at
#  http://www.iucr.org
##########################################################################

data_image0

_cell_length_a                          11.7526
_cell_length_b                          11.7526
_cell_length_c                          11.8323
_cell_angle_alpha                       91.7812
_cell_angle_beta                        91.7812
_cell_angle_gamma                       105.187
_symmetry_space_group_name_H-M          'P 1'
_symmetry_int_tables_number             1
loop_
  _symmetry_equiv_pos_as_xyz
         'x, y, z' 
loop_
  _atom_site_label
  _atom_site_occupancy
  _atom_site_fract_x
  _atom_site_fract_y
  _atom_site_fract_z
  _atom_site_thermal_displace_type
  _atom_site_B_iso_or_equiv
  _atom_site_type_symbol
  _atom_site_charge
         C1        1.0000    0.14316   0.33648   0.14150   Biso      1.000     C          0.11746400000000001           
         C2        1.0000    0.76599   0.51283   0.42274   Biso      1.000     C          -0.171495           
         C3        1.0000    0.79078   0.46584   0.52488   Biso      1.000     C          -0.107156           
         C4        1.0000    0.71870   0.35940   0.55989   Biso      1.000     C          0.04085   
         C5        1.0000    0.62256   0.29934   0.48946   Biso      1.000     C          -0.12829300000000002          
         C6        1.0000    0.59672   0.34458   0.38798   Biso      1.000     C          -0.197006           
         C7        1.0000    0.66825   0.45253   0.35434   Biso      1.000     C          0.19092   
         C8        1.0000    0.72591   0.14015   0.78270   Biso      1.000     C          0.09946100000000001           
         C9        1.0000    0.71951   0.18781   0.67817   Biso      1.000     C          -0.189111           
         C10       1.0000    0.73811   0.30895   0.66931   Biso      1.000     C          0.129732  
         C11       1.0000    0.76709   0.37837   0.76940   Biso      1.000     C          -0.188078           
         C12       1.0000    0.77239   0.32389   0.87125   Biso      1.000     C          0.069391  
         C13       1.0000    0.47339   0.39409   0.12480   Biso      1.000     C          -0.17218  
         C14       1.0000    0.35285   0.35307   0.09978   Biso      1.000     C          -0.11773499999999999          
         C15       1.0000    0.27062   0.38402   0.16927   Biso      1.000     C          0.038294999999999996          
         C16       1.0000    0.61200   0.07558   0.25016   Biso      1.000     C          0.084187  
         C17       1.0000    0.07558   0.61200   0.75016   Biso      1.000     C          0.084151  
         C18       1.0000    0.94468   0.65210   0.89067   Biso      1.000     C          0.114597  
         C19       1.0000    0.93600   0.74754   0.82570   Biso      1.000     C          -0.179885           
         C20       1.0000    0.99481   0.76791   0.72560   Biso      1.000     C          0.095239  
         C21       1.0000    0.71880   0.54396   0.17021   Biso      1.000     C          0.20775300000000002           
         C22       1.0000    0.68918   0.61384   0.08580   Biso      1.000     C          -0.18797  
         C23       1.0000    0.76459   0.65121   0.99830   Biso      1.000     C          -0.100689           
         C24       1.0000    0.87174   0.62014   0.99066   Biso      1.000     C          0.028843  
         C25       1.0000    0.90165   0.55297   0.07713   Biso      1.000     C          -0.124992           
         C26       1.0000    0.82747   0.51607   0.16605   Biso      1.000     C          -0.193125           
         C27       1.0000    0.98496   0.24286   0.00712   Biso      1.000     C          0.08616499999999999           
         C28       1.0000    0.10335   0.29565   0.03094   Biso      1.000     C          -0.196248           
         C29       1.0000    0.31236   0.45766   0.26585   Biso      1.000     C          -0.116139           
         C30       1.0000    0.05607   0.32631   0.22172   Biso      1.000     C          -0.184332           
         C31       1.0000    0.93892   0.27310   0.19032   Biso      1.000     C          0.08948500000000001           
         C32       1.0000    0.01947   0.58541   0.85092   Biso      1.000     C          -0.207873           
         C33       1.0000    0.58541   0.01947   0.35092   Biso      1.000     C          -0.207877           
         C34       1.0000    0.65210   0.94468   0.39067   Biso      1.000     C          0.114569  
         C35       1.0000    0.74754   0.93600   0.32570   Biso      1.000     C          -0.17990899999999999          
         C36       1.0000    0.51283   0.76599   0.92274   Biso      1.000     C          -0.17146  
         C37       1.0000    0.46584   0.79078   0.02488   Biso      1.000     C          -0.10711300000000001          
         C38       1.0000    0.35940   0.71870   0.05989   Biso      1.000     C          0.040768  
         C39       1.0000    0.29934   0.62256   0.98946   Biso      1.000     C          -0.12826400000000002          
         C40       1.0000    0.34458   0.59672   0.88798   Biso      1.000     C          -0.197019           
         C41       1.0000    0.45253   0.66825   0.85434   Biso      1.000     C          0.190931  
         C42       1.0000    0.14015   0.72591   0.28270   Biso      1.000     C          0.09947   
         C43       1.0000    0.18781   0.71951   0.17817   Biso      1.000     C          -0.189118           
         C44       1.0000    0.30895   0.73811   0.16931   Biso      1.000     C          0.12978900000000002           
         C45       1.0000    0.37837   0.76709   0.26940   Biso      1.000     C          -0.188075           
         C46       1.0000    0.32389   0.77239   0.37125   Biso      1.000     C          0.069415  
         C47       1.0000    0.39409   0.47339   0.62480   Biso      1.000     C          -0.17221  
         C48       1.0000    0.35307   0.35285   0.59978   Biso      1.000     C          -0.117729           
         C49       1.0000    0.51351   0.46683   0.22054   Biso      1.000     C          0.18945   
         C50       1.0000    0.38402   0.27062   0.66927   Biso      1.000     C          0.038255000000000004          
         C51       1.0000    0.49869   0.43267   0.79067   Biso      1.000     C          -0.17308099999999998          
         C52       1.0000    0.76791   0.99481   0.22560   Biso      1.000     C          0.09524500000000001           
         C53       1.0000    0.54396   0.71880   0.67021   Biso      1.000     C          0.20773000000000003           
         C54       1.0000    0.61384   0.68918   0.58580   Biso      1.000     C          -0.187926           
         C55       1.0000    0.65121   0.76459   0.49830   Biso      1.000     C          -0.100717           
         C56       1.0000    0.62014   0.87174   0.49066   Biso      1.000     C          0.028914  
         C57       1.0000    0.45766   0.31236   0.76585   Biso      1.000     C          -0.116047           
         C58       1.0000    0.55297   0.90165   0.57713   Biso      1.000     C          -0.12499500000000001          
         C59       1.0000    0.24286   0.98496   0.50712   Biso      1.000     C          0.086154  
         C60       1.0000    0.29565   0.10335   0.53094   Biso      1.000     C          -0.196235           
         C61       1.0000    0.33648   0.14316   0.64150   Biso      1.000     C          0.11748499999999999           
         C62       1.0000    0.32631   0.05607   0.72172   Biso      1.000     C          -0.184274           
         C63       1.0000    0.27310   0.93892   0.69032   Biso      1.000     C          0.089487  
         C64       1.0000    0.46683   0.51351   0.72054   Biso      1.000     C          0.189462  
         C65       1.0000    0.51607   0.82747   0.66605   Biso      1.000     C          -0.193104           
         C66       1.0000    0.43267   0.49869   0.29067   Biso      1.000     C          -0.17308800000000002          
         Cl1       1.0000    0.11570   0.53382   0.49537   Biso      1.000     Cl          -0.546265           
         Cl2       1.0000    0.96471   0.80453   0.45594   Biso      1.000     Cl          -0.628447           
         Cl3       1.0000    0.80453   0.96471   0.95594   Biso      1.000     Cl          -0.628559           
         Cl4       1.0000    0.53382   0.11570   0.99537   Biso      1.000     Cl          -0.5462100000000001           
         Cu1       1.0000    0.12945   0.73122   0.53017   Biso      1.000     Cu          0.602979  
         Cu2       1.0000    0.73122   0.12945   0.03017   Biso      1.000     Cu          0.603116  
         H1        1.0000    0.53090   0.30270   0.34140   Biso      1.000     H          0.12350499999999999           
         H2        1.0000    0.71160   0.05700   0.78660   Biso      1.000     H          0.09611900000000001           
         H3        1.0000    0.78300   0.46180   0.76780   Biso      1.000     H          0.12489600000000001           
         H4        1.0000    0.79180   0.37200   0.93870   Biso      1.000     H          0.081536  
         H5        1.0000    0.52810   0.37250   0.07660   Biso      1.000     H          0.12435   
         H6        1.0000    0.32590   0.30310   0.03440   Biso      1.000     H          0.113942  
         H7        1.0000    0.25800   0.47940   0.31430   Biso      1.000     H          0.11489200000000001           
         H8        1.0000    0.46020   0.54880   0.35580   Biso      1.000     H          0.12484200000000001           
         H9        1.0000    0.88170   0.26650   0.24640   Biso      1.000     H          0.097053  
         H10       1.0000    0.07710   0.35570   0.29730   Biso      1.000     H          0.13358299999999998           
         H11       1.0000    0.15790   0.30430   0.97220   Biso      1.000     H          0.132517  
         H12       1.0000    0.96090   0.21370   0.93200   Biso      1.000     H          0.09561   
         H13       1.0000    0.85070   0.47190   0.22410   Biso      1.000     H          0.11798099999999999           
         H14       1.0000    0.97440   0.53200   0.07500   Biso      1.000     H          0.102025  
         H15       1.0000    0.74310   0.69890   0.94240   Biso      1.000     H          0.11487   
         H16       1.0000    0.61700   0.63580   0.08860   Biso      1.000     H          0.121288  
         H17       1.0000    0.98680   0.83260   0.68280   Biso      1.000     H          0.101176  
         H18       1.0000    0.88980   0.79820   0.85030   Biso      1.000     H          0.136975  
         H19       1.0000    0.03150   0.52190   0.89320   Biso      1.000     H          0.121116  
         H20       1.0000    0.12560   0.56540   0.72510   Biso      1.000     H          0.09123200000000001           
         H21       1.0000    0.57400   0.22600   0.51170   Biso      1.000     H          0.09940299999999999           
         H22       1.0000    0.85740   0.50680   0.57100   Biso      1.000     H          0.117908  
         H23       1.0000    0.58550   0.81530   0.89990   Biso      1.000     H          0.128474  
         H24       1.0000    0.56540   0.12560   0.22510   Biso      1.000     H          0.091239  
         H25       1.0000    0.50680   0.85740   0.07100   Biso      1.000     H          0.11786600000000001           
         H26       1.0000    0.22600   0.57400   0.01170   Biso      1.000     H          0.099401  
         H27       1.0000    0.30270   0.53090   0.84140   Biso      1.000     H          0.123518  
         H28       1.0000    0.05700   0.71160   0.28660   Biso      1.000     H          0.096092  
         H29       1.0000    0.13750   0.70230   0.11200   Biso      1.000     H          0.12445899999999999           
         H30       1.0000    0.46180   0.78300   0.26780   Biso      1.000     H          0.124876  
         H31       1.0000    0.81530   0.58550   0.39990   Biso      1.000     H          0.128487  
         H32       1.0000    0.37250   0.52810   0.57660   Biso      1.000     H          0.124384  
         H33       1.0000    0.30310   0.32590   0.53440   Biso      1.000     H          0.113968  
         H34       1.0000    0.47940   0.25800   0.81430   Biso      1.000     H          0.11484100000000001           
         H35       1.0000    0.54880   0.46020   0.85580   Biso      1.000     H          0.12484400000000001           
         H36       1.0000    0.37200   0.79180   0.43870   Biso      1.000     H          0.081502  
         H37       1.0000    0.35570   0.07710   0.79730   Biso      1.000     H          0.13353399999999999           
         H38       1.0000    0.52190   0.03150   0.39320   Biso      1.000     H          0.121148  
         H39       1.0000    0.79820   0.88980   0.35030   Biso      1.000     H          0.137021  
         H40       1.0000    0.26650   0.88170   0.74640   Biso      1.000     H          0.09705599999999999           
         H41       1.0000    0.83260   0.98680   0.18280   Biso      1.000     H          0.101202  
         H42       1.0000    0.63580   0.61700   0.58860   Biso      1.000     H          0.12128699999999999           
         H43       1.0000    0.70230   0.13750   0.61200   Biso      1.000     H          0.124454  
         H44       1.0000    0.53200   0.97440   0.57500   Biso      1.000     H          0.102025  
         H45       1.0000    0.47190   0.85070   0.72410   Biso      1.000     H          0.117979  
         H46       1.0000    0.21370   0.96090   0.43200   Biso      1.000     H          0.095626  
         H47       1.0000    0.30430   0.15790   0.47220   Biso      1.000     H          0.132519  
         H48       1.0000    0.69890   0.74310   0.44240   Biso      1.000     H          0.114882  
         N1        1.0000    0.06248   0.70104   0.68593   Biso      1.000     N          -0.21618600000000002          
         N2        1.0000    0.75148   0.20684   0.87896   Biso      1.000     N          -0.190685           
         N3        1.0000    0.63676   0.50174   0.25357   Biso      1.000     N          -0.16914400000000002          
         N4        1.0000    0.70104   0.06248   0.18593   Biso      1.000     N          -0.216166           
         N5        1.0000    0.23063   0.90203   0.58524   Biso      1.000     N          -0.23859699999999998          
         N6        1.0000    0.20684   0.75148   0.37896   Biso      1.000     N          -0.19071300000000002          
         N7        1.0000    0.50174   0.63676   0.75357   Biso      1.000     N          -0.169148           
         N8        1.0000    0.90203   0.23063   0.08524   Biso      1.000     N          -0.238587 