
##########################################################################
#               Crystallographic Information Format file
#               Produced by PyCifRW module
#
#  This is a CIF file.  CIF has been adopted by the International
#  Union of Crystallography as the standard for data archiving and
#  transmission.
#
#  For information on this file format, follow the CIF links at
#  http://www.iucr.org
##########################################################################

data_image0

_cell_length_a                          7.9714
_cell_length_b                          9.7403
_cell_length_c                          21.312
_cell_angle_alpha                       90
_cell_angle_beta                        90
_cell_angle_gamma                       114.154
_symmetry_space_group_name_H-M          'P 1'
_symmetry_int_tables_number             1
loop_
  _symmetry_equiv_pos_as_xyz
         'x, y, z' 
loop_
  _atom_site_label
  _atom_site_occupancy
  _atom_site_fract_x
  _atom_site_fract_y
  _atom_site_fract_z
  _atom_site_thermal_displace_type
  _atom_site_B_iso_or_equiv
  _atom_site_type_symbol
  _atom_site_charge
         C1        1.0000    0.68640   0.57460   0.94470   Biso      1.000     C          -0.18296199999999999          
         C2        1.0000    0.83890   0.52980   0.73310   Biso      1.000     C          -0.14618699999999998          
         C3        1.0000    0.37180   0.34100   0.08630   Biso      1.000     C          0.551913  
         C4        1.0000    0.28010   0.44400   0.07460   Biso      1.000     C          0.084991  
         C5        1.0000    0.04660   0.32700   0.22230   Biso      1.000     C          0.093445  
         C6        1.0000    0.27590   0.66580   0.07780   Biso      1.000     C          0.07800800000000001           
         C7        1.0000    0.36450   0.82700   0.08900   Biso      1.000     C          0.499434  
         C8        1.0000    0.11180   0.42540   0.05530   Biso      1.000     C          -0.18417  
         C9        1.0000    0.11340   0.57480   0.05770   Biso      1.000     C          -0.162272           
         C10       1.0000    0.87700   0.25960   0.18710   Biso      1.000     C          0.486523  
         C11       1.0000    0.12300   0.74040   0.68710   Biso      1.000     C          0.489616  
         C12       1.0000    0.16110   0.47020   0.23310   Biso      1.000     C          -0.147478           
         C13       1.0000    0.83610   0.55600   0.92540   Biso      1.000     C          0.08339400000000001           
         C14       1.0000    0.71960   0.67300   0.77770   Biso      1.000     C          0.091619  
         C15       1.0000    0.61010   0.33420   0.92220   Biso      1.000     C          0.075443  
         C16       1.0000    0.53750   0.17300   0.91100   Biso      1.000     C          0.49331499999999995           
         C17       1.0000    0.38990   0.66580   0.42220   Biso      1.000     C          0.07635800000000001           
         C18       1.0000    0.53860   0.42520   0.94230   Biso      1.000     C          -0.16045299999999998          
         C19       1.0000    0.61740   0.74040   0.81290   Biso      1.000     C          0.480947  
         C20       1.0000    0.69090   0.52980   0.76690   Biso      1.000     C          -0.14724600000000002          
         C21       1.0000    0.96920   0.34100   0.41370   Biso      1.000     C          0.5479    
         C22       1.0000    0.03080   0.65900   0.91370   Biso      1.000     C          0.549042  
         C23       1.0000    0.88660   0.42520   0.55770   Biso      1.000     C          -0.158638           
         C24       1.0000    0.88820   0.57460   0.55530   Biso      1.000     C          -0.182972           
         C25       1.0000    0.63550   0.17300   0.58900   Biso      1.000     C          0.502866  
         C26       1.0000    0.30910   0.47020   0.26690   Biso      1.000     C          -0.14299  
         C27       1.0000    0.38260   0.25960   0.31290   Biso      1.000     C          0.493361  
         C28       1.0000    0.46140   0.57480   0.44230   Biso      1.000     C          -0.160831           
         C29       1.0000    0.31360   0.42540   0.44470   Biso      1.000     C          -0.186437           
         C30       1.0000    0.46250   0.82700   0.41100   Biso      1.000     C          0.49836   
         C31       1.0000    0.16390   0.44400   0.42540   Biso      1.000     C          0.085642  
         C32       1.0000    0.28040   0.32700   0.27770   Biso      1.000     C          0.089902  
         C33       1.0000    0.62820   0.65900   0.58630   Biso      1.000     C          0.5498890000000001  
         C34       1.0000    0.71990   0.55600   0.57460   Biso      1.000     C          0.086977  
         C35       1.0000    0.95340   0.67300   0.72230   Biso      1.000     C          0.089456  
         C36       1.0000    0.72410   0.33420   0.57780   Biso      1.000     C          0.078019  
         H1        1.0000    0.58990   0.44500   0.78000   Biso      1.000     H          0.158749  
         H2        1.0000    0.41630   0.39920   0.95310   Biso      1.000     H          0.153151  
         H3        1.0000    0.67910   0.66360   0.95700   Biso      1.000     H          0.12359300000000001           
         H4        1.0000    0.58370   0.60080   0.45310   Biso      1.000     H          0.152197  
         H5        1.0000    0.01710   0.60080   0.04690   Biso      1.000     H          0.15199300000000002           
         H6        1.0000    0.01550   0.33640   0.04300   Biso      1.000     H          0.122241  
         H7        1.0000    0.85510   0.44500   0.72000   Biso      1.000     H          0.159143  
         H8        1.0000    0.98290   0.39920   0.54690   Biso      1.000     H          0.153034  
         H9        1.0000    0.98450   0.66360   0.54300   Biso      1.000     H          0.122129  
         H10       1.0000    0.41010   0.55500   0.28000   Biso      1.000     H          0.157969  
         H11       1.0000    0.32090   0.33640   0.45700   Biso      1.000     H          0.120993  
         H12       1.0000    0.14490   0.55500   0.22000   Biso      1.000     H          0.158762  
         Na1       1.0000    0.88990   0.00000   0.50000   Biso      1.000     Na          0.9202670000000001  
         Na2       1.0000    0.11010   0.00000   0.00000   Biso      1.000     Na          0.9195959999999999  
         O1        1.0000    0.79930   0.34440   0.16900   Biso      1.000     O          -0.554351           
         O2        1.0000    0.08890   0.79980   0.93000   Biso      1.000     O          -0.68713  
         O3        1.0000    0.63360   0.11380   0.88330   Biso      1.000     O          -0.558479           
         O4        1.0000    0.68590   0.87880   0.82830   Biso      1.000     O          -0.568559           
         O5        1.0000    0.37260   0.08880   0.92550   Biso      1.000     O          -0.659837           
         O6        1.0000    0.45490   0.65560   0.83100   Biso      1.000     O          -0.553032           
         O7        1.0000    0.79560   0.40980   0.91020   Biso      1.000     O          -0.100357           
         O8        1.0000    0.86390   0.38600   0.38910   Biso      1.000     O          -0.50132  
         O9        1.0000    0.91110   0.20020   0.43000   Biso      1.000     O          -0.694391           
         O10       1.0000    0.36640   0.88620   0.38330   Biso      1.000     O          -0.562336           
         O11       1.0000    0.31410   0.12120   0.32830   Biso      1.000     O          -0.577399           
         O12       1.0000    0.62740   0.91120   0.42550   Biso      1.000     O          -0.6652170000000001           
         O13       1.0000    0.54510   0.34440   0.33100   Biso      1.000     O          -0.558602           
         O14       1.0000    0.20440   0.59020   0.41020   Biso      1.000     O          -0.100259           
         O15       1.0000    0.13610   0.61400   0.88910   Biso      1.000     O          -0.498615           
         O16       1.0000    0.38580   0.59020   0.08980   Biso      1.000     O          -0.101178           
         O17       1.0000    0.11610   0.23220   0.25000   Biso      1.000     O          -0.128503           
         O18       1.0000    0.28380   0.91120   0.07450   Biso      1.000     O          -0.662597           
         O19       1.0000    0.47790   0.61400   0.61090   Biso      1.000     O          -0.49774700000000005          
         O20       1.0000    0.71090   0.79980   0.57000   Biso      1.000     O          -0.6862229999999999           
         O21       1.0000    0.48020   0.11380   0.61670   Biso      1.000     O          -0.5610310000000001           
         O22       1.0000    0.88390   0.76780   0.75000   Biso      1.000     O          -0.127916           
         O23       1.0000    0.71620   0.08880   0.57450   Biso      1.000     O          -0.661356           
         O24       1.0000    0.19290   0.87880   0.67170   Biso      1.000     O          -0.5719390000000001           
         O25       1.0000    0.61420   0.40980   0.58980   Biso      1.000     O          -0.09994600000000001          
         O26       1.0000    0.52210   0.38600   0.11090   Biso      1.000     O          -0.503286           
         O27       1.0000    0.28910   0.20020   0.07000   Biso      1.000     O          -0.693585           
         O28       1.0000    0.51980   0.88620   0.11670   Biso      1.000     O          -0.563851           
         O29       1.0000    0.80710   0.12120   0.17170   Biso      1.000     O          -0.5723689999999999           
         O30       1.0000    0.20070   0.65560   0.66900   Biso      1.000     O          -0.556751           
         U1        1.0000    0.45905   0.85680   0.61808   Biso      1.000     U          1.5152379999999999  
         U2        1.0000    0.54095   0.14320   0.11808   Biso      1.000     U          1.523335  
         U3        1.0000    0.39775   0.85680   0.88192   Biso      1.000     U          1.504672  
         U4        1.0000    0.60225   0.14320   0.38192   Biso      1.000     U          1.517315 