
##########################################################################
#               Crystallographic Information Format file
#               Produced by PyCifRW module
#
#  This is a CIF file.  CIF has been adopted by the International
#  Union of Crystallography as the standard for data archiving and
#  transmission.
#
#  For information on this file format, follow the CIF links at
#  http://www.iucr.org
##########################################################################

data_image0

_cell_length_a                          10.3177
_cell_length_b                          10.3177
_cell_length_c                          12.6527
_cell_angle_alpha                       100.754
_cell_angle_beta                        100.754
_cell_angle_gamma                       104.73
_symmetry_space_group_name_H-M          'P 1'
_symmetry_int_tables_number             1
loop_
  _symmetry_equiv_pos_as_xyz
         'x, y, z' 
loop_
  _atom_site_label
  _atom_site_occupancy
  _atom_site_fract_x
  _atom_site_fract_y
  _atom_site_fract_z
  _atom_site_thermal_displace_type
  _atom_site_B_iso_or_equiv
  _atom_site_type_symbol
  _atom_site_charge
         C1        1.0000    0.26730   0.17070   0.67270   Biso      1.000     C          -0.090192           
         C2        1.0000    0.70138   0.50242   0.69850   Biso      1.000     C          0.5984189999999999  
         C3        1.0000    0.65092   0.93948   0.60480   Biso      1.000     C          0.65373   
         C4        1.0000    0.34311   0.26309   0.77110   Biso      1.000     C          -0.020016           
         C5        1.0000    0.27585   0.32175   0.84300   Biso      1.000     C          -0.122457           
         C6        1.0000    0.13315   0.28705   0.81680   Biso      1.000     C          -0.047255           
         C7        1.0000    0.05780   0.19520   0.71670   Biso      1.000     C          -0.09426799999999999          
         C8        1.0000    0.12540   0.13800   0.64570   Biso      1.000     C          -0.089161           
         C9        1.0000    0.87460   0.86200   0.35430   Biso      1.000     C          -0.089145           
         C10       1.0000    0.49758   0.29862   0.80150   Biso      1.000     C          0.598418  
         C11       1.0000    0.82930   0.73270   0.82730   Biso      1.000     C          -0.09019400000000001          
         C12       1.0000    0.06052   0.34908   0.89520   Biso      1.000     C          0.65373   
         C13       1.0000    0.32175   0.27585   0.34300   Biso      1.000     C          -0.12243599999999999          
         C14       1.0000    0.28705   0.13315   0.31680   Biso      1.000     C          -0.047235           
         C15       1.0000    0.19520   0.05780   0.21670   Biso      1.000     C          -0.094266           
         C16       1.0000    0.13800   0.12540   0.14570   Biso      1.000     C          -0.089134           
         C17       1.0000    0.17070   0.26730   0.17270   Biso      1.000     C          -0.090168           
         C18       1.0000    0.29862   0.49758   0.30150   Biso      1.000     C          0.598426  
         C19       1.0000    0.34908   0.06052   0.39520   Biso      1.000     C          0.653725  
         C20       1.0000    0.65689   0.73691   0.22890   Biso      1.000     C          -0.020016           
         C21       1.0000    0.72415   0.67825   0.15700   Biso      1.000     C          -0.12243499999999999          
         C22       1.0000    0.26309   0.34311   0.27110   Biso      1.000     C          -0.020011           
         C23       1.0000    0.86200   0.87460   0.85430   Biso      1.000     C          -0.089162           
         C24       1.0000    0.80480   0.94220   0.78330   Biso      1.000     C          -0.094274           
         C25       1.0000    0.71295   0.86685   0.68320   Biso      1.000     C          -0.047254000000000004         
         C26       1.0000    0.93948   0.65092   0.10480   Biso      1.000     C          0.653728  
         C27       1.0000    0.50242   0.70138   0.19850   Biso      1.000     C          0.598426  
         C28       1.0000    0.73270   0.82930   0.32730   Biso      1.000     C          -0.090166           
         C29       1.0000    0.86685   0.71295   0.18320   Biso      1.000     C          -0.04724  
         C30       1.0000    0.94220   0.80480   0.28330   Biso      1.000     C          -0.09425499999999999          
         C31       1.0000    0.67825   0.72415   0.65700   Biso      1.000     C          -0.12245999999999999          
         C32       1.0000    0.73691   0.65689   0.72890   Biso      1.000     C          -0.020016           
         H1        1.0000    0.67290   0.61490   0.09070   Biso      1.000     H          0.127602  
         H2        1.0000    0.68820   0.86980   0.37550   Biso      1.000     H          0.112273  
         H3        1.0000    0.61490   0.67290   0.59070   Biso      1.000     H          0.12759   
         H4        1.0000    0.82770   0.03810   0.80240   Biso      1.000     H          0.112299  
         H5        1.0000    0.92350   0.92550   0.92150   Biso      1.000     H          0.104099  
         H6        1.0000    0.86980   0.68820   0.87550   Biso      1.000     H          0.112266  
         H7        1.0000    0.32710   0.38510   0.90930   Biso      1.000     H          0.127592  
         H8        1.0000    0.96190   0.17230   0.69760   Biso      1.000     H          0.1123    
         H9        1.0000    0.07450   0.07650   0.57850   Biso      1.000     H          0.104099  
         H10       1.0000    0.92550   0.92350   0.42150   Biso      1.000     H          0.10411199999999998           
         H11       1.0000    0.38510   0.32710   0.40930   Biso      1.000     H          0.127605  
         H12       1.0000    0.17230   0.96190   0.19760   Biso      1.000     H          0.112303  
         H13       1.0000    0.07650   0.07450   0.07850   Biso      1.000     H          0.10411300000000001           
         H14       1.0000    0.13020   0.31180   0.12450   Biso      1.000     H          0.112274  
         H15       1.0000    0.03810   0.82770   0.30240   Biso      1.000     H          0.1123    
         H16       1.0000    0.31180   0.13020   0.62450   Biso      1.000     H          0.11226900000000001           
         Mn1       1.0000    0.77286   0.37852   0.90147   Biso      1.000     Mn          1.065834  
         Mn2       1.0000    0.37852   0.77286   0.40147   Biso      1.000     Mn          1.065954  
         Mn3       1.0000    0.22714   0.62148   0.09853   Biso      1.000     Mn          1.065882  
         Mn4       1.0000    0.62148   0.22714   0.59853   Biso      1.000     Mn          1.065723  
         O1        1.0000    0.43406   0.59832   0.12225   Biso      1.000     O          -0.530918           
         O2        1.0000    0.44728   0.78040   0.25000   Biso      1.000     O          -0.615626           
         O3        1.0000    0.29941   0.93273   0.37400   Biso      1.000     O          -0.572293           
         O4        1.0000    0.44331   0.13181   0.47552   Biso      1.000     O          -0.592116           
         O5        1.0000    0.40168   0.56594   0.37775   Biso      1.000     O          -0.530924           
         O6        1.0000    0.21960   0.55272   0.25000   Biso      1.000     O          -0.615624           
         O7        1.0000    0.93273   0.29941   0.87400   Biso      1.000     O          -0.572272           
         O8        1.0000    0.13181   0.44331   0.97552   Biso      1.000     O          -0.5921529999999999           
         O9        1.0000    0.56594   0.40168   0.87775   Biso      1.000     O          -0.530949           
         O10       1.0000    0.55272   0.21960   0.75000   Biso      1.000     O          -0.615613           
         O11       1.0000    0.70059   0.06727   0.62600   Biso      1.000     O          -0.572258           
         O12       1.0000    0.55669   0.86819   0.52448   Biso      1.000     O          -0.59216  
         O13       1.0000    0.59832   0.43406   0.62225   Biso      1.000     O          -0.530937           
         O14       1.0000    0.78040   0.44728   0.75000   Biso      1.000     O          -0.615618           
         O15       1.0000    0.86819   0.55669   0.02448   Biso      1.000     O          -0.59213  
         O16       1.0000    0.06727   0.70059   0.12600   Biso      1.000     O          -0.572284 