
##########################################################################
#               Crystallographic Information Format file
#               Produced by PyCifRW module
#
#  This is a CIF file.  CIF has been adopted by the International
#  Union of Crystallography as the standard for data archiving and
#  transmission.
#
#  For information on this file format, follow the CIF links at
#  http://www.iucr.org
##########################################################################

data_image0

_cell_length_a                          12.7934
_cell_length_b                          14.6822
_cell_length_c                          19.0771
_cell_angle_alpha                       107.115
_cell_angle_beta                        105.536
_cell_angle_gamma                       93.518
_symmetry_space_group_name_H-M          'P 1'
_symmetry_int_tables_number             1
loop_
  _symmetry_equiv_pos_as_xyz
         'x, y, z' 
loop_
  _atom_site_label
  _atom_site_occupancy
  _atom_site_fract_x
  _atom_site_fract_y
  _atom_site_fract_z
  _atom_site_thermal_displace_type
  _atom_site_B_iso_or_equiv
  _atom_site_type_symbol
  _atom_site_charge
         C1        1.0000    0.86000   0.31780   0.49950   Biso      1.000     C          -0.10474000000000001          
         C2        1.0000    0.09770   0.07760   0.21570   Biso      1.000     C          0.679286  
         C3        1.0000    0.31560   0.26460   0.36380   Biso      1.000     C          0.593136  
         C4        1.0000    0.14000   0.68220   0.50050   Biso      1.000     C          -0.10473900000000001          
         C5        1.0000    0.74270   0.75880   0.95430   Biso      1.000     C          -0.1163   
         C6        1.0000    0.90930   0.74800   0.15220   Biso      1.000     C          0.6915020000000001  
         C7        1.0000    0.86350   0.76240   0.07800   Biso      1.000     C          -0.12405999999999999          
         C8        1.0000    0.31140   0.73510   0.58720   Biso      1.000     C          -0.125883           
         C9        1.0000    0.27490   0.40850   0.55760   Biso      1.000     C          -0.121302           
         C10       1.0000    0.19790   0.67190   0.08050   Biso      1.000     C          -0.086877           
         C11       1.0000    0.17540   0.53490   0.97710   Biso      1.000     C          -0.09916900000000001          
         C12       1.0000    0.27330   0.58090   0.88930   Biso      1.000     C          0.6796479999999999  
         C13       1.0000    0.15730   0.57600   0.04860   Biso      1.000     C          -0.115291           
         C14       1.0000    0.40230   0.92410   0.29510   Biso      1.000     C          0.676016  
         C15       1.0000    0.35600   0.42680   0.46700   Biso      1.000     C          -0.11490299999999999          
         C16       1.0000    0.18860   0.74140   0.15100   Biso      1.000     C          0.590773  
         C17       1.0000    0.33860   0.47040   0.53900   Biso      1.000     C          -0.120244           
         C18       1.0000    0.23550   0.42880   0.62560   Biso      1.000     C          0.682467  
         C19       1.0000    0.64580   0.74310   0.88580   Biso      1.000     C          0.71053   
         C20       1.0000    0.70090   0.92540   0.31210   Biso      1.000     C          -0.125851           
         C21       1.0000    0.83950   0.81680   0.97550   Biso      1.000     C          -0.097564           
         C22       1.0000    0.60690   0.97060   0.31190   Biso      1.000     C          -0.093038           
         C23       1.0000    0.51640   0.90620   0.29840   Biso      1.000     C          -0.086388           
         C24       1.0000    0.21280   0.68100   0.57060   Biso      1.000     C          -0.106769           
         C25       1.0000    0.90790   0.81950   0.04590   Biso      1.000     C          -0.10301500000000001          
         C26       1.0000    0.75470   0.75770   0.28790   Biso      1.000     C          0.592599  
         C27       1.0000    0.40920   0.74980   0.65380   Biso      1.000     C          0.69203   
         C28       1.0000    0.73900   0.23870   0.20480   Biso      1.000     C          0.596911  
         C29       1.0000    0.98300   0.09480   0.20910   Biso      1.000     C          -0.129137           
         C30       1.0000    0.67930   0.82750   0.29650   Biso      1.000     C          -0.074378           
         C31       1.0000    0.13610   0.74820   0.39080   Biso      1.000     C          0.71712   
         C32       1.0000    0.30890   0.33290   0.43440   Biso      1.000     C          -0.07413099999999999          
         C33       1.0000    0.18430   0.73460   0.46630   Biso      1.000     C          -0.11763599999999999          
         C34       1.0000    0.81640   0.16840   0.20090   Biso      1.000     C          -0.092814           
         C35       1.0000    0.23370   0.59870   0.95770   Biso      1.000     C          -0.093106           
         C36       1.0000    0.76630   0.40130   0.04230   Biso      1.000     C          -0.09311  
         C37       1.0000    0.66140   0.52960   0.46100   Biso      1.000     C          -0.12023699999999998          
         C38       1.0000    0.86390   0.25180   0.60920   Biso      1.000     C          0.717118  
         C39       1.0000    0.32070   0.17250   0.70350   Biso      1.000     C          -0.074379           
         C40       1.0000    0.01700   0.90520   0.79090   Biso      1.000     C          -0.12914  
         C41       1.0000    0.26100   0.76130   0.79520   Biso      1.000     C          0.596916  
         C42       1.0000    0.18360   0.83160   0.79910   Biso      1.000     C          -0.092817           
         C43       1.0000    0.59080   0.25020   0.34620   Biso      1.000     C          0.6920270000000001  
         C44       1.0000    0.69110   0.66710   0.56560   Biso      1.000     C          -0.074116           
         C45       1.0000    0.09210   0.18050   0.95410   Biso      1.000     C          -0.103039           
         C46       1.0000    0.48360   0.09380   0.70160   Biso      1.000     C          -0.086381           
         C47       1.0000    0.39310   0.02940   0.68810   Biso      1.000     C          -0.093032           
         C48       1.0000    0.16050   0.18320   0.02450   Biso      1.000     C          -0.097585           
         C49       1.0000    0.29910   0.07460   0.68790   Biso      1.000     C          -0.125844           
         C50       1.0000    0.10520   0.96910   0.80030   Biso      1.000     C          -0.12161300000000001          
         C51       1.0000    0.20070   0.92670   0.80590   Biso      1.000     C          -0.108455           
         C52       1.0000    0.78720   0.31900   0.42940   Biso      1.000     C          -0.10677400000000001          
         C53       1.0000    0.81570   0.26540   0.53370   Biso      1.000     C          -0.117632           
         C54       1.0000    0.35420   0.25690   0.11420   Biso      1.000     C          0.710531  
         C55       1.0000    0.24530   0.24230   0.71210   Biso      1.000     C          0.5926    
         C56       1.0000    0.64400   0.57320   0.53300   Biso      1.000     C          -0.114909           
         C57       1.0000    0.59770   0.07590   0.70490   Biso      1.000     C          0.67602   
         C58       1.0000    0.84270   0.42400   0.95140   Biso      1.000     C          -0.115319           
         C59       1.0000    0.72670   0.41910   0.11070   Biso      1.000     C          0.6796479999999999  
         C60       1.0000    0.82460   0.46510   0.02290   Biso      1.000     C          -0.09915299999999999          
         C61       1.0000    0.80210   0.32810   0.91950   Biso      1.000     C          -0.086859           
         C62       1.0000    0.81140   0.25860   0.84900   Biso      1.000     C          0.590767  
         C63       1.0000    0.72510   0.59150   0.44240   Biso      1.000     C          -0.1213   
         C64       1.0000    0.13650   0.23760   0.92200   Biso      1.000     C          -0.124054           
         C65       1.0000    0.09070   0.25200   0.84780   Biso      1.000     C          0.691503  
         C66       1.0000    0.25730   0.24120   0.04570   Biso      1.000     C          -0.11628499999999999          
         C67       1.0000    0.68440   0.73540   0.63620   Biso      1.000     C          0.593116  
         C68       1.0000    0.90230   0.92240   0.78430   Biso      1.000     C          0.679287  
         C69       1.0000    0.68860   0.26490   0.41280   Biso      1.000     C          -0.125864           
         C70       1.0000    0.76450   0.57120   0.37440   Biso      1.000     C          0.682465  
         C71       1.0000    0.89480   0.03090   0.19970   Biso      1.000     C          -0.12161400000000001          
         C72       1.0000    0.79930   0.07330   0.19410   Biso      1.000     C          -0.108451           
         Dy1       1.0000    0.40287   0.62000   0.77988   Biso      1.000     Dy          2.096584  
         Dy2       1.0000    0.10991   0.38548   0.73609   Biso      1.000     Dy          2.085769  
         Dy3       1.0000    0.15723   0.88148   0.28002   Biso      1.000     Dy          2.0989619999999998  
         Dy4       1.0000    0.34805   0.12421   0.23681   Biso      1.000     Dy          2.085927  
         Dy5       1.0000    0.59713   0.38000   0.22012   Biso      1.000     Dy          2.09659   
         Dy6       1.0000    0.84277   0.11852   0.71998   Biso      1.000     Dy          2.098964  
         Dy7       1.0000    0.65195   0.87579   0.76319   Biso      1.000     Dy          2.0859799999999997  
         Dy8       1.0000    0.89009   0.61452   0.26391   Biso      1.000     Dy          2.085785  
         H1        1.0000    0.97710   0.85670   0.06890   Biso      1.000     H          0.13988299999999998           
         H2        1.0000    0.06840   0.64970   0.48030   Biso      1.000     H          0.137705  
         H3        1.0000    0.53470   0.11900   0.18730   Biso      1.000     H          0.40874699999999997           
         H4        1.0000    0.15010   0.47100   0.94660   Biso      1.000     H          0.129278  
         H5        1.0000    0.93990   0.38990   0.80380   Biso      1.000     H          0.407684  
         H6        1.0000    0.39530   0.45900   0.44450   Biso      1.000     H          0.137744  
         H7        1.0000    0.36720   0.53360   0.57000   Biso      1.000     H          0.127162  
         H8        1.0000    0.19520   0.64730   0.60130   Biso      1.000     H          0.141524  
         H9        1.0000    0.26900   0.96010   0.81350   Biso      1.000     H          0.13887   
         H10       1.0000    0.12160   0.54160   0.07160   Biso      1.000     H          0.14189300000000002           
         H11       1.0000    0.60650   0.03620   0.32000   Biso      1.000     H          0.129891  
         H12       1.0000    0.10230   0.03300   0.80270   Biso      1.000     H          0.12988   
         H13       1.0000    0.77040   0.95840   0.32180   Biso      1.000     H          0.137206  
         H14       1.0000    0.85820   0.85150   0.94580   Biso      1.000     H          0.135073  
         H15       1.0000    0.14180   0.14850   0.05420   Biso      1.000     H          0.135072  
         H16       1.0000    0.80480   0.35270   0.39870   Biso      1.000     H          0.141525  
         H17       1.0000    0.02290   0.14330   0.93110   Biso      1.000     H          0.139881  
         H18       1.0000    0.93160   0.35030   0.51970   Biso      1.000     H          0.137705  
         H19       1.0000    0.46530   0.88100   0.81270   Biso      1.000     H          0.40883800000000003           
         H20       1.0000    0.84990   0.52900   0.05340   Biso      1.000     H          0.129271  
         H21       1.0000    0.39350   0.96380   0.68000   Biso      1.000     H          0.1299    
         H22       1.0000    0.60470   0.54100   0.55550   Biso      1.000     H          0.137739  
         H23       1.0000    0.89770   0.96700   0.19730   Biso      1.000     H          0.12988   
         H24       1.0000    0.87840   0.45840   0.92840   Biso      1.000     H          0.14188699999999999           
         H25       1.0000    0.73100   0.03990   0.18650   Biso      1.000     H          0.138873  
         H26       1.0000    0.22960   0.04160   0.67820   Biso      1.000     H          0.137215  
         H27       1.0000    0.06010   0.61010   0.19620   Biso      1.000     H          0.40771399999999997           
         H28       1.0000    0.63280   0.46640   0.43000   Biso      1.000     H          0.127155  
         O1        1.0000    0.43610   0.31260   0.12280   Biso      1.000     O          -0.679987           
         O2        1.0000    0.41020   0.69470   0.69250   Biso      1.000     O          -0.7237399999999999           
         O3        1.0000    0.63660   0.21100   0.17390   Biso      1.000     O          -0.58982  
         O4        1.0000    0.85590   0.78340   0.31100   Biso      1.000     O          -0.601065           
         O5        1.0000    0.19740   0.83000   0.15860   Biso      1.000     O          -0.625749           
         O6        1.0000    0.62800   0.00310   0.72070   Biso      1.000     O          -0.7074020000000001           
         O7        1.0000    0.02660   0.56300   0.19980   Biso      1.000     O          -0.7036939999999999           
         O8        1.0000    0.65700   0.13580   0.69260   Biso      1.000     O          -0.63361  
         O9        1.0000    0.64740   0.36220   0.10710   Biso      1.000     O          -0.634833           
         O10       1.0000    0.81670   0.18890   0.62580   Biso      1.000     O          -0.692056           
         O11       1.0000    0.84050   0.86280   0.79610   Biso      1.000     O          -0.636241           
         O12       1.0000    0.71370   0.50100   0.31670   Biso      1.000     O          -0.743999           
         O13       1.0000    0.71400   0.66880   0.25500   Biso      1.000     O          -0.641867           
         O14       1.0000    0.77480   0.48990   0.16830   Biso      1.000     O          -0.7045170000000001           
         O15       1.0000    0.70380   0.82490   0.64630   Biso      1.000     O          -0.63708  
         O16       1.0000    0.51620   0.18300   0.33230   Biso      1.000     O          -0.632944           
         O17       1.0000    0.84700   0.62550   0.37890   Biso      1.000     O          -0.635062           
         O18       1.0000    0.51230   0.92740   0.82250   Biso      1.000     O          -0.699795           
         O19       1.0000    0.22480   0.67320   0.76060   Biso      1.000     O          -0.632238           
         O20       1.0000    0.13450   0.32240   0.83680   Biso      1.000     O          -0.62868  
         O21       1.0000    0.87220   0.99370   0.76600   Biso      1.000     O          -0.749062           
         O22       1.0000    0.34620   0.20960   0.15820   Biso      1.000     O          -0.691708           
         O23       1.0000    0.83170   0.28870   0.79750   Biso      1.000     O          -0.587448           
         O24       1.0000    0.01010   0.19230   0.80040   Biso      1.000     O          -0.722409           
         O25       1.0000    0.65730   0.70750   0.68580   Biso      1.000     O          -0.59354  
         O26       1.0000    0.80260   0.17000   0.84140   Biso      1.000     O          -0.625747           
         O27       1.0000    0.28600   0.33120   0.74500   Biso      1.000     O          -0.641845           
         O28       1.0000    0.34270   0.29250   0.31420   Biso      1.000     O          -0.5935239999999999           
         O29       1.0000    0.58980   0.30530   0.30750   Biso      1.000     O          -0.723741           
         O30       1.0000    0.95130   0.30690   0.65090   Biso      1.000     O          -0.68771  
         O31       1.0000    0.98990   0.80770   0.19960   Biso      1.000     O          -0.722396           
         O32       1.0000    0.97340   0.43700   0.80020   Biso      1.000     O          -0.7036600000000001           
         O33       1.0000    0.65380   0.79040   0.84180   Biso      1.000     O          -0.691709           
         O34       1.0000    0.36340   0.78900   0.82610   Biso      1.000     O          -0.589843           
         O35       1.0000    0.22520   0.51010   0.83170   Biso      1.000     O          -0.7045100000000001           
         O36       1.0000    0.16830   0.71130   0.20250   Biso      1.000     O          -0.587446           
         O37       1.0000    0.34300   0.86420   0.30740   Biso      1.000     O          -0.6336149999999999           
         O38       1.0000    0.35260   0.63780   0.89290   Biso      1.000     O          -0.6348239999999999           
         O39       1.0000    0.18330   0.81110   0.37420   Biso      1.000     O          -0.692055           
         O40       1.0000    0.15950   0.13720   0.20390   Biso      1.000     O          -0.636234           
         O41       1.0000    0.28630   0.49900   0.68330   Biso      1.000     O          -0.7439979999999999           
         O42       1.0000    0.37200   0.99690   0.27930   Biso      1.000     O          -0.707392           
         O43       1.0000    0.04870   0.69310   0.34910   Biso      1.000     O          -0.687716           
         O44       1.0000    0.12780   0.00630   0.23400   Biso      1.000     O          -0.749063           
         O45       1.0000    0.56390   0.68740   0.87720   Biso      1.000     O          -0.67998  
         O46       1.0000    0.29620   0.17510   0.35370   Biso      1.000     O          -0.637081           
         O47       1.0000    0.86550   0.67760   0.16320   Biso      1.000     O          -0.628679           
         O48       1.0000    0.14410   0.21660   0.68900   Biso      1.000     O          -0.6010300000000001           
         O49       1.0000    0.48770   0.07260   0.17750   Biso      1.000     O          -0.699739           
         O50       1.0000    0.15300   0.37450   0.62110   Biso      1.000     O          -0.635063           
         O51       1.0000    0.48380   0.81700   0.66770   Biso      1.000     O          -0.632972           
         O52       1.0000    0.77520   0.32680   0.23940   Biso      1.000     O          -0.632231           
         S1        1.0000    0.04933   0.79308   0.78526   Biso      1.000     S          0.18174400000000002           
         S2        1.0000    0.45456   0.20831   0.71421   Biso      1.000     S          0.178328  
         S3        1.0000    0.68416   0.21139   0.48031   Biso      1.000     S          0.168123  
         S4        1.0000    0.26485   0.29459   0.97930   Biso      1.000     S          0.187105  
         S5        1.0000    0.73655   0.28894   0.97523   Biso      1.000     S          0.17736400000000002           
         S6        1.0000    0.95067   0.20692   0.21474   Biso      1.000     S          0.181739  
         S7        1.0000    0.54544   0.79169   0.28579   Biso      1.000     S          0.178298  
         S8        1.0000    0.31584   0.78861   0.51969   Biso      1.000     S          0.168124  
         S9        1.0000    0.23839   0.29747   0.48914   Biso      1.000     S          0.164273  
         S10       1.0000    0.73515   0.70541   0.02070   Biso      1.000     S          0.187128  
         S11       1.0000    0.26345   0.71106   0.02477   Biso      1.000     S          0.177385  
         S12       1.0000    0.76161   0.70253   0.51086   Biso      1.000     S          0.16426500000000002 