
##########################################################################
#               Crystallographic Information Format file
#               Produced by PyCifRW module
#
#  This is a CIF file.  CIF has been adopted by the International
#  Union of Crystallography as the standard for data archiving and
#  transmission.
#
#  For information on this file format, follow the CIF links at
#  http://www.iucr.org
##########################################################################

data_image0

_cell_length_a                          12.8068
_cell_length_b                          14.5574
_cell_length_c                          19.1276
_cell_angle_alpha                       106.66
_cell_angle_beta                        105.621
_cell_angle_gamma                       93.691
_symmetry_space_group_name_H-M          'P 1'
_symmetry_int_tables_number             1
loop_
  _symmetry_equiv_pos_as_xyz
         'x, y, z' 
loop_
  _atom_site_label
  _atom_site_occupancy
  _atom_site_fract_x
  _atom_site_fract_y
  _atom_site_fract_z
  _atom_site_thermal_displace_type
  _atom_site_B_iso_or_equiv
  _atom_site_type_symbol
  _atom_site_charge
         C1        1.0000    0.77560   0.90800   0.55880   Biso      1.000     C          -0.12297  
         C2        1.0000    0.26610   0.89970   0.04210   Biso      1.000     C          -0.09754  
         C3        1.0000    0.22590   0.91730   0.10930   Biso      1.000     C          0.676837  
         C4        1.0000    0.63440   0.73490   0.92220   Biso      1.000     C          -0.122777           
         C5        1.0000    0.59080   0.67720   0.95450   Biso      1.000     C          -0.106842           
         C6        1.0000    0.66070   0.68010   0.02610   Biso      1.000     C          -0.098304           
         C7        1.0000    0.75790   0.73900   0.04550   Biso      1.000     C          -0.119231           
         C8        1.0000    0.85330   0.75830   0.11400   Biso      1.000     C          0.703424  
         C9        1.0000    0.23650   0.73800   0.20640   Biso      1.000     C          0.595936  
         C10       1.0000    0.89210   0.52670   0.68510   Biso      1.000     C          -0.087936           
         C11       1.0000    0.79730   0.57130   0.68620   Biso      1.000     C          -0.125502           
         C12       1.0000    0.09610   0.57780   0.70350   Biso      1.000     C          0.673713  
         C13       1.0000    0.98260   0.59380   0.70020   Biso      1.000     C          -0.086609           
         C14       1.0000    0.41370   0.25090   0.15240   Biso      1.000     C          0.693052  
         C15       1.0000    0.63780   0.24680   0.39140   Biso      1.000     C          0.709514  
         C16       1.0000    0.18570   0.23330   0.63510   Biso      1.000     C          0.589906  
         C17       1.0000    0.40120   0.41740   0.78370   Biso      1.000     C          0.674172  
         C18       1.0000    0.51620   0.40320   0.78970   Biso      1.000     C          -0.127038           
         C19       1.0000    0.60390   0.46950   0.80000   Biso      1.000     C          -0.125667           
         C20       1.0000    0.70200   0.42840   0.80570   Biso      1.000     C          -0.111481           
         C21       1.0000    0.68520   0.33100   0.79700   Biso      1.000     C          -0.093473           
         C22       1.0000    0.68640   0.23320   0.46600   Biso      1.000     C          -0.12154  
         C23       1.0000    0.64190   0.17840   0.50040   Biso      1.000     C          -0.100295           
         C24       1.0000    0.71440   0.17870   0.56980   Biso      1.000     C          -0.104184           
         C25       1.0000    0.32650   0.96540   0.02300   Biso      1.000     C          -0.092822           
         C26       1.0000    0.81330   0.23310   0.58640   Biso      1.000     C          -0.130931           
         C27       1.0000    0.34440   0.92350   0.95160   Biso      1.000     C          -0.118351           
         C28       1.0000    0.31110   0.75910   0.84960   Biso      1.000     C          0.597702  
         C29       1.0000    0.10790   0.47330   0.31490   Biso      1.000     C          -0.087935           
         C30       1.0000    0.20270   0.42870   0.31380   Biso      1.000     C          -0.125506           
         C31       1.0000    0.90390   0.42220   0.29650   Biso      1.000     C          0.67371   
         C32       1.0000    0.01740   0.40620   0.29980   Biso      1.000     C          -0.086604           
         C33       1.0000    0.18160   0.33000   0.29710   Biso      1.000     C          -0.073089           
         C34       1.0000    0.58630   0.74910   0.84760   Biso      1.000     C          0.693058  
         C35       1.0000    0.36220   0.75320   0.60860   Biso      1.000     C          0.709514  
         C36       1.0000    0.81430   0.76670   0.36490   Biso      1.000     C          0.589883  
         C37       1.0000    0.59880   0.58260   0.21630   Biso      1.000     C          0.674166  
         C38       1.0000    0.48380   0.59680   0.21030   Biso      1.000     C          -0.127019           
         C39       1.0000    0.39610   0.53050   0.20000   Biso      1.000     C          -0.125669           
         C40       1.0000    0.29800   0.57160   0.19430   Biso      1.000     C          -0.11148  
         C41       1.0000    0.31480   0.66900   0.20300   Biso      1.000     C          -0.093453           
         C42       1.0000    0.31360   0.76680   0.53400   Biso      1.000     C          -0.121541           
         C43       1.0000    0.35810   0.82160   0.49960   Biso      1.000     C          -0.100293           
         C44       1.0000    0.28560   0.82130   0.43020   Biso      1.000     C          -0.104185           
         C45       1.0000    0.18670   0.76690   0.41360   Biso      1.000     C          -0.130928           
         C46       1.0000    0.08830   0.75150   0.34640   Biso      1.000     C          0.688122  
         C47       1.0000    0.25630   0.25900   0.28610   Biso      1.000     C          0.589918  
         C48       1.0000    0.80910   0.83470   0.43610   Biso      1.000     C          -0.073838           
         C49       1.0000    0.85820   0.92840   0.47030   Biso      1.000     C          -0.113704           
         C50       1.0000    0.84150   0.97030   0.54170   Biso      1.000     C          -0.118429           
         C51       1.0000    0.73520   0.92630   0.62580   Biso      1.000     C          0.674802  
         C52       1.0000    0.30260   0.82810   0.92000   Biso      1.000     C          -0.086767           
         C53       1.0000    0.91170   0.24850   0.65360   Biso      1.000     C          0.688125  
         C54       1.0000    0.81840   0.67000   0.70290   Biso      1.000     C          -0.073098           
         C55       1.0000    0.19090   0.16530   0.56390   Biso      1.000     C          -0.073859           
         C56       1.0000    0.74370   0.74100   0.71390   Biso      1.000     C          0.589922  
         C57       1.0000    0.76350   0.26200   0.79360   Biso      1.000     C          0.595947  
         C58       1.0000    0.14670   0.24170   0.88600   Biso      1.000     C          0.703424  
         C59       1.0000    0.33930   0.31990   0.97390   Biso      1.000     C          -0.098304           
         C60       1.0000    0.40920   0.32280   0.04550   Biso      1.000     C          -0.106857           
         C61       1.0000    0.36560   0.26510   0.07780   Biso      1.000     C          -0.122762           
         C62       1.0000    0.77410   0.08270   0.89070   Biso      1.000     C          0.676836  
         C63       1.0000    0.73390   0.10030   0.95790   Biso      1.000     C          -0.097527           
         C64       1.0000    0.24210   0.26100   0.95450   Biso      1.000     C          -0.119229           
         C65       1.0000    0.65560   0.07650   0.04840   Biso      1.000     C          -0.11836  
         C66       1.0000    0.69740   0.17190   0.08000   Biso      1.000     C          -0.086743           
         C67       1.0000    0.68890   0.24090   0.15040   Biso      1.000     C          0.597692  
         C68       1.0000    0.26480   0.07370   0.37420   Biso      1.000     C          0.674802  
         C69       1.0000    0.22440   0.09200   0.44120   Biso      1.000     C          -0.122978           
         C70       1.0000    0.15850   0.02970   0.45830   Biso      1.000     C          -0.118435           
         C71       1.0000    0.67350   0.03460   0.97700   Biso      1.000     C          -0.092814           
         C72       1.0000    0.14180   0.07160   0.52970   Biso      1.000     C          -0.113703           
         H1        1.0000    0.56240   0.10670   0.19520   Biso      1.000     H          0.398587  
         H2        1.0000    0.89320   0.45900   0.67530   Biso      1.000     H          0.127935  
         H3        1.0000    0.72680   0.53660   0.67650   Biso      1.000     H          0.137886  
         H4        1.0000    0.59960   0.53540   0.80310   Biso      1.000     H          0.128732  
         H5        1.0000    0.77160   0.46410   0.81450   Biso      1.000     H          0.141246  
         H6        1.0000    0.56930   0.14370   0.47970   Biso      1.000     H          0.137856  
         H7        1.0000    0.61820   0.04140   0.07160   Biso      1.000     H          0.142134  
         H8        1.0000    0.12760   0.96550   0.42590   Biso      1.000     H          0.126838  
         H9        1.0000    0.64720   0.96910   0.94590   Biso      1.000     H          0.128629  
         H10       1.0000    0.47970   0.36140   0.06870   Biso      1.000     H          0.138403  
         H11       1.0000    0.96460   0.38220   0.80960   Biso      1.000     H          0.400971  
         H12       1.0000    0.35780   0.35490   0.94290   Biso      1.000     H          0.135594  
         H13       1.0000    0.10040   0.03790   0.55170   Biso      1.000     H          0.135787  
         H14       1.0000    0.64220   0.64510   0.05710   Biso      1.000     H          0.135595  
         H15       1.0000    0.69650   0.14470   0.60160   Biso      1.000     H          0.140352  
         H16       1.0000    0.52030   0.63860   0.93130   Biso      1.000     H          0.138404  
         H17       1.0000    0.03540   0.61780   0.19040   Biso      1.000     H          0.400969  
         H18       1.0000    0.43760   0.89330   0.80480   Biso      1.000     H          0.398629  
         H19       1.0000    0.10680   0.54100   0.32470   Biso      1.000     H          0.127932  
         H20       1.0000    0.40040   0.46460   0.19690   Biso      1.000     H          0.128726  
         H21       1.0000    0.22840   0.53590   0.18550   Biso      1.000     H          0.141237  
         H22       1.0000    0.27320   0.46340   0.32350   Biso      1.000     H          0.137886  
         H23       1.0000    0.30350   0.85530   0.39840   Biso      1.000     H          0.140352  
         H24       1.0000    0.89960   0.96210   0.44830   Biso      1.000     H          0.135783  
         H25       1.0000    0.87240   0.03450   0.57410   Biso      1.000     H          0.126833  
         H26       1.0000    0.38180   0.95860   0.92840   Biso      1.000     H          0.142134  
         H27       1.0000    0.35280   0.03090   0.05410   Biso      1.000     H          0.128638  
         H28       1.0000    0.43070   0.85630   0.52030   Biso      1.000     H          0.137856  
         O1        1.0000    0.68620   0.31100   0.37460   Biso      1.000     O          -0.698903           
         O2        1.0000    0.65210   0.87150   0.62120   Biso      1.000     O          -0.63297  
         O3        1.0000    0.08720   0.80760   0.30750   Biso      1.000     O          -0.722612           
         O4        1.0000    0.01390   0.68460   0.33370   Biso      1.000     O          -0.629244           
         O5        1.0000    0.84830   0.71390   0.16030   Biso      1.000     O          -0.688526           
         O6        1.0000    0.93520   0.81520   0.12040   Biso      1.000     O          -0.686163           
         O7        1.0000    0.55010   0.19240   0.34930   Biso      1.000     O          -0.683541           
         O8        1.0000    0.34250   0.35590   0.79550   Biso      1.000     O          -0.627002           
         O9        1.0000    0.12910   0.50470   0.71910   Biso      1.000     O          -0.717572           
         O10       1.0000    0.01410   0.42920   0.82030   Biso      1.000     O          -0.691294           
         O11       1.0000    0.20690   0.32350   0.64620   Biso      1.000     O          -0.64189  
         O12       1.0000    0.15760   0.20300   0.68370   Biso      1.000     O          -0.590333           
         O13       1.0000    0.27300   0.82700   0.24040   Biso      1.000     O          -0.63846  
         O14       1.0000    0.36850   0.48900   0.76590   Biso      1.000     O          -0.754224           
         O15       1.0000    0.15440   0.63890   0.69110   Biso      1.000     O          -0.627147           
         O16       1.0000    0.13530   0.70960   0.17540   Biso      1.000     O          -0.582738           
         O17       1.0000    0.35780   0.28560   0.30970   Biso      1.000     O          -0.600432           
         O18       1.0000    0.27470   0.98860   0.16700   Biso      1.000     O          -0.711163           
         O19       1.0000    0.49140   0.31200   0.19900   Biso      1.000     O          -0.706239           
         O20       1.0000    0.63150   0.51100   0.23410   Biso      1.000     O          -0.754226           
         O21       1.0000    0.65750   0.64410   0.20450   Biso      1.000     O          -0.627002           
         O22       1.0000    0.84240   0.79700   0.31630   Biso      1.000     O          -0.59033  
         O23       1.0000    0.79310   0.67650   0.35380   Biso      1.000     O          -0.641884           
         O24       1.0000    0.98590   0.57080   0.17970   Biso      1.000     O          -0.691264           
         O25       1.0000    0.87090   0.49530   0.28090   Biso      1.000     O          -0.717572           
         O26       1.0000    0.84560   0.36110   0.30890   Biso      1.000     O          -0.627145           
         O27       1.0000    0.62910   0.82200   0.83720   Biso      1.000     O          -0.638341           
         O28       1.0000    0.47280   0.94130   0.80080   Biso      1.000     O          -0.683891           
         O29       1.0000    0.50860   0.68800   0.80100   Biso      1.000     O          -0.706241           
         O30       1.0000    0.21540   0.17030   0.25290   Biso      1.000     O          -0.639653           
         O31       1.0000    0.78610   0.99590   0.68460   Biso      1.000     O          -0.747643           
         O32       1.0000    0.29940   0.66990   0.84080   Biso      1.000     O          -0.629349           
         O33       1.0000    0.33220   0.79000   0.79850   Biso      1.000     O          -0.593657           
         O34       1.0000    0.14680   0.86010   0.10550   Biso      1.000     O          -0.624143           
         O35       1.0000    0.37090   0.17800   0.16280   Biso      1.000     O          -0.638329           
         O36       1.0000    0.31380   0.68900   0.62540   Biso      1.000     O          -0.698901           
         O37       1.0000    0.64220   0.71440   0.69030   Biso      1.000     O          -0.600432           
         O38       1.0000    0.52720   0.05870   0.19920   Biso      1.000     O          -0.683847           
         O39       1.0000    0.44990   0.80760   0.65070   Biso      1.000     O          -0.68355  
         O40       1.0000    0.06480   0.18480   0.87960   Biso      1.000     O          -0.686167           
         O41       1.0000    0.15170   0.28610   0.83970   Biso      1.000     O          -0.688527           
         O42       1.0000    0.98610   0.31540   0.66630   Biso      1.000     O          -0.629243           
         O43       1.0000    0.34790   0.12850   0.37880   Biso      1.000     O          -0.632964           
         O44       1.0000    0.72700   0.17300   0.75960   Biso      1.000     O          -0.638464           
         O45       1.0000    0.91280   0.19240   0.69250   Biso      1.000     O          -0.722614           
         O46       1.0000    0.85320   0.13990   0.89450   Biso      1.000     O          -0.624142           
         O47       1.0000    0.72530   0.01140   0.83300   Biso      1.000     O          -0.711168           
         O48       1.0000    0.66780   0.21000   0.20150   Biso      1.000     O          -0.593646           
         O49       1.0000    0.70060   0.33010   0.15920   Biso      1.000     O          -0.629344           
         O50       1.0000    0.21390   0.00410   0.31540   Biso      1.000     O          -0.747641           
         O51       1.0000    0.78460   0.82970   0.74710   Biso      1.000     O          -0.639656           
         O52       1.0000    0.86470   0.29040   0.82460   Biso      1.000     O          -0.582738           
         S1        1.0000    0.76468   0.21211   0.02578   Biso      1.000     S          0.184579  
         S2        1.0000    0.55117   0.29084   0.78409   Biso      1.000     S          0.180603  
         S3        1.0000    0.23747   0.20633   0.02154   Biso      1.000     S          0.188517  
         S4        1.0000    0.81781   0.28609   0.51840   Biso      1.000     S          0.181674  
         S5        1.0000    0.26247   0.20272   0.51062   Biso      1.000     S          0.162961  
         S6        1.0000    0.18219   0.71391   0.48160   Biso      1.000     S          0.181676  
         S7        1.0000    0.44883   0.70916   0.21591   Biso      1.000     S          0.180584  
         S8        1.0000    0.76253   0.79367   0.97846   Biso      1.000     S          0.188521  
         S9        1.0000    0.23532   0.78789   0.97422   Biso      1.000     S          0.184593  
         S10       1.0000    0.73753   0.79728   0.48938   Biso      1.000     S          0.162953  
         S11       1.0000    0.04759   0.29138   0.28538   Biso      1.000     S          0.184099  
         S12       1.0000    0.95241   0.70862   0.71462   Biso      1.000     S          0.184102  
         Tb1       1.0000    0.84571   0.62523   0.23787   Biso      1.000     Tb          2.087893  
         Tb2       1.0000    0.60930   0.88650   0.73676   Biso      1.000     Tb          2.088014  
         Tb3       1.0000    0.09576   0.88182   0.21936   Biso      1.000     Tb          2.097527  
         Tb4       1.0000    0.33947   0.61682   0.71937   Biso      1.000     Tb          2.102485  
         Tb5       1.0000    0.15429   0.37477   0.76213   Biso      1.000     Tb          2.0879    
         Tb6       1.0000    0.39070   0.11350   0.26324   Biso      1.000     Tb          2.087976  
         Tb7       1.0000    0.90424   0.11818   0.78064   Biso      1.000     Tb          2.097532  
         Tb8       1.0000    0.66053   0.38318   0.28063   Biso      1.000     Tb          2.102476 