
##########################################################################
#               Crystallographic Information Format file
#               Produced by PyCifRW module
#
#  This is a CIF file.  CIF has been adopted by the International
#  Union of Crystallography as the standard for data archiving and
#  transmission.
#
#  For information on this file format, follow the CIF links at
#  http://www.iucr.org
##########################################################################

data_image0

_cell_length_a                          10.0634
_cell_length_b                          13.0284
_cell_length_c                          14.9227
_cell_angle_alpha                       79.6622
_cell_angle_beta                        70.2946
_cell_angle_gamma                       67.2811
_symmetry_space_group_name_H-M          'P 1'
_symmetry_int_tables_number             1
loop_
  _symmetry_equiv_pos_as_xyz
         'x, y, z' 
loop_
  _atom_site_label
  _atom_site_occupancy
  _atom_site_fract_x
  _atom_site_fract_y
  _atom_site_fract_z
  _atom_site_thermal_displace_type
  _atom_site_B_iso_or_equiv
  _atom_site_type_symbol
  _atom_site_charge
         C1        1.0000    0.24470   0.02660   0.14200   Biso      1.000     C          0.669507  
         C2        1.0000    0.92280   0.51950   0.30690   Biso      1.000     C          -0.101494           
         C3        1.0000    0.82790   0.19290   0.48530   Biso      1.000     C          -0.112852           
         C4        1.0000    0.57990   0.19390   0.48230   Biso      1.000     C          -0.11869  
         C5        1.0000    0.56300   0.27010   0.54190   Biso      1.000     C          -0.116043           
         C6        1.0000    0.71050   0.26720   0.54180   Biso      1.000     C          -0.117976           
         C7        1.0000    0.12810   0.79610   0.65570   Biso      1.000     C          -0.118678           
         C8        1.0000    0.07810   0.71080   0.69500   Biso      1.000     C          -0.129643           
         C9        1.0000    0.73100   0.69270   0.32230   Biso      1.000     C          -0.093332           
         C10       1.0000    0.12620   0.13650   0.12330   Biso      1.000     C          -0.154883           
         C11       1.0000    0.25080   0.87580   0.48860   Biso      1.000     C          0.633593  
         C12       1.0000    0.39110   0.66460   0.98480   Biso      1.000     C          0.72021   
         C13       1.0000    0.77120   0.30030   0.81010   Biso      1.000     C          0.668389  
         C14       1.0000    0.95080   0.29090   0.05950   Biso      1.000     C          -0.1177   
         C15       1.0000    0.68080   0.02750   0.90090   Biso      1.000     C          -0.079848           
         C16       1.0000    0.98050   0.76720   0.04180   Biso      1.000     C          -0.121415           
         C17       1.0000    0.87290   0.65980   0.99080   Biso      1.000     C          0.69738   
         C18       1.0000    0.80070   0.11420   0.76240   Biso      1.000     C          -0.141147           
         C19       1.0000    0.88480   0.37580   0.98860   Biso      1.000     C          0.635853  
         C20       1.0000    0.75080   0.01950   0.80690   Biso      1.000     C          -0.10109  
         C21       1.0000    0.99390   0.69290   0.98530   Biso      1.000     C          -0.110526           
         C22       1.0000    0.62040   0.95520   0.96600   Biso      1.000     C          0.571844  
         C23       1.0000    0.82270   0.61420   0.26240   Biso      1.000     C          -0.143104           
         C24       1.0000    0.97650   0.15980   0.49080   Biso      1.000     C          0.701986  
         C25       1.0000    0.08670   0.52660   0.64200   Biso      1.000     C          0.667157  
         C26       1.0000    0.75400   0.19270   0.82230   Biso      1.000     C          -0.092528           
         C27       1.0000    0.01610   0.21080   0.19500   Biso      1.000     C          -0.127062           
         C28       1.0000    0.92010   0.29610   0.15570   Biso      1.000     C          -0.121491           
         C29       1.0000    0.24390   0.69390   0.98230   Biso      1.000     C          -0.124337           
         C30       1.0000    0.11400   0.63650   0.62330   Biso      1.000     C          -0.155593           
         C31       1.0000    0.12500   0.77010   0.04190   Biso      1.000     C          -0.111924           
         C32       1.0000    0.89080   0.52750   0.40090   Biso      1.000     C          -0.077582           
         C33       1.0000    0.19880   0.79090   0.55950   Biso      1.000     C          -0.119277           
         C34       1.0000    0.61840   0.80030   0.31010   Biso      1.000     C          0.667277  
         C35       1.0000    0.95840   0.45520   0.46600   Biso      1.000     C          0.569404  
         C36       1.0000    0.45950   0.16460   0.48480   Biso      1.000     C          0.718473  
         H1        1.0000    0.01140   0.20140   0.25880   Biso      1.000     H          0.128518  
         H2        1.0000    0.82410   0.61810   0.19930   Biso      1.000     H          0.124103  
         H3        1.0000    0.00090   0.46030   0.27330   Biso      1.000     H          0.137847  
         H4        1.0000    0.47090   0.31700   0.57740   Biso      1.000     H          0.139474  
         H5        1.0000    0.72060   0.31300   0.57800   Biso      1.000     H          0.13581   
         H6        1.0000    0.02840   0.70140   0.75880   Biso      1.000     H          0.128776  
         H7        1.0000    0.85850   0.11810   0.69930   Biso      1.000     H          0.123263  
         H8        1.0000    0.13470   0.81700   0.07740   Biso      1.000     H          0.138035  
         H9        1.0000    0.88840   0.81300   0.07800   Biso      1.000     H          0.137826  
         H10       1.0000    0.84020   0.35300   0.19080   Biso      1.000     H          0.13132   
         H11       1.0000    0.11600   0.85300   0.69080   Biso      1.000     H          0.131702  
         H12       1.0000    0.76550   0.96030   0.77330   Biso      1.000     H          0.137453  
         Nd1       1.0000    0.09183   0.29520   0.60800   Biso      1.000     Nd          2.084317  
         Nd2       1.0000    0.76856   0.53020   0.84640   Biso      1.000     Nd          2.082336  
         Nd3       1.0000    0.50497   0.79520   0.10800   Biso      1.000     Nd          2.083268  
         Nd4       1.0000    0.35484   0.03020   0.34640   Biso      1.000     Nd          2.082918  
         O1        1.0000    0.01870   0.20020   0.52640   Biso      1.000     O          -0.583695           
         O2        1.0000    0.08530   0.10960   0.40220   Biso      1.000     O          -0.781633           
         O3        1.0000    0.95820   0.36190   0.90330   Biso      1.000     O          -0.678307           
         O4        1.0000    0.59310   0.95360   0.05820   Biso      1.000     O          -0.641585           
         O5        1.0000    0.68650   0.36930   0.87330   Biso      1.000     O          -0.606572           
         O6        1.0000    0.28810   0.95340   0.08500   Biso      1.000     O          -0.644608           
         O7        1.0000    0.87240   0.31450   0.74150   Biso      1.000     O          -0.742505           
         O8        1.0000    0.29160   0.00680   0.21400   Biso      1.000     O          -0.740631           
         O9        1.0000    0.59080   0.87550   0.93490   Biso      1.000     O          -0.617344           
         O10       1.0000    0.42650   0.71730   0.01550   Biso      1.000     O          -0.608707           
         O11       1.0000    0.76870   0.44800   0.01460   Biso      1.000     O          -0.614916           
         O12       1.0000    0.50340   0.59810   0.91250   Biso      1.000     O          -0.791535           
         O13       1.0000    0.48600   0.09810   0.41250   Biso      1.000     O          -0.790992           
         O14       1.0000    0.26870   0.94800   0.51460   Biso      1.000     O          -0.61334  
         O15       1.0000    0.34070   0.21730   0.51550   Biso      1.000     O          -0.610073           
         O16       1.0000    0.09880   0.37550   0.43490   Biso      1.000     O          -0.617275           
         O17       1.0000    0.98760   0.50680   0.71400   Biso      1.000     O          -0.736912           
         O18       1.0000    0.57160   0.81450   0.24150   Biso      1.000     O          -0.740362           
         O19       1.0000    0.17350   0.45340   0.58500   Biso      1.000     O          -0.64538  
         O20       1.0000    0.57090   0.86930   0.37330   Biso      1.000     O          -0.606614           
         O21       1.0000    0.89510   0.45360   0.55820   Biso      1.000     O          -0.64004  
         O22       1.0000    0.27660   0.86190   0.40330   Biso      1.000     O          -0.677114           
         O23       1.0000    0.75470   0.70020   0.02640   Biso      1.000     O          -0.581298           
         O24       1.0000    0.90290   0.60960   0.90220   Biso      1.000     O          -0.780616           
         S1        1.0000    0.18290   0.62170   0.92850   Biso      1.000     S          0.191699  
         S2        1.0000    0.10770   0.17330   0.01730   Biso      1.000     S          0.190699  
         S3        1.0000    0.65930   0.15030   0.93750   Biso      1.000     S          0.143987  
         S4        1.0000    0.76690   0.12170   0.42850   Biso      1.000     S          0.19027   
         S5        1.0000    0.20170   0.67330   0.51730   Biso      1.000     S          0.19129   
         S6        1.0000    0.75290   0.65030   0.43750   Biso      1.000     S          0.144286 