
##########################################################################
#               Crystallographic Information Format file
#               Produced by PyCifRW module
#
#  This is a CIF file.  CIF has been adopted by the International
#  Union of Crystallography as the standard for data archiving and
#  transmission.
#
#  For information on this file format, follow the CIF links at
#  http://www.iucr.org
##########################################################################

data_image0

_cell_length_a                          9.2761
_cell_length_b                          11.5506
_cell_length_c                          17.2671
_cell_angle_alpha                       104.827
_cell_angle_beta                        90
_cell_angle_gamma                       113.675
_symmetry_space_group_name_H-M          'P 1'
_symmetry_int_tables_number             1
loop_
  _symmetry_equiv_pos_as_xyz
         'x, y, z' 
loop_
  _atom_site_label
  _atom_site_occupancy
  _atom_site_fract_x
  _atom_site_fract_y
  _atom_site_fract_z
  _atom_site_thermal_displace_type
  _atom_site_B_iso_or_equiv
  _atom_site_type_symbol
  _atom_site_charge
         C1        1.0000    0.78140   0.07480   0.76788   Biso      1.000     C          0.501758  
         C2        1.0000    0.57240   0.73920   0.27500   Biso      1.000     C          0.079218  
         C3        1.0000    0.53550   0.79840   0.22260   Biso      1.000     C          -0.133624           
         C4        1.0000    0.64536   0.85012   0.17312   Biso      1.000     C          0.017216  
         C5        1.0000    0.61056   0.91932   0.11710   Biso      1.000     C          0.637838  
         C6        1.0000    0.05229   0.07198   0.52352   Biso      1.000     C          0.505443  
         C7        1.0000    0.80960   0.48000   0.53320   Biso      1.000     C          -0.151078           
         C8        1.0000    0.83400   0.57120   0.49030   Biso      1.000     C          0.088077  
         C9        1.0000    0.59480   0.44820   0.41640   Biso      1.000     C          0.072848  
         C10       1.0000    0.56160   0.35380   0.45700   Biso      1.000     C          -0.13508499999999998          
         C11       1.0000    0.81470   0.77940   0.23180   Biso      1.000     C          0.08065499999999999           
         C12       1.0000    0.67242   0.36664   0.51420   Biso      1.000     C          0.025137  
         C13       1.0000    0.05180   0.83780   0.67680   Biso      1.000     C          -0.15214  
         C14       1.0000    0.96470   0.77940   0.73180   Biso      1.000     C          0.07988200000000001           
         C15       1.0000    0.16680   0.73920   0.77500   Biso      1.000     C          0.078298  
         C16       1.0000    0.26290   0.79840   0.72260   Biso      1.000     C          -0.133904           
         C17       1.0000    0.20476   0.85012   0.67312   Biso      1.000     C          0.017459  
         C18       1.0000    0.30876   0.91932   0.61710   Biso      1.000     C          0.636386  
         C19       1.0000    0.70660   0.92520   0.73212   Biso      1.000     C          0.503165  
         C20       1.0000    0.98031   0.92802   0.97648   Biso      1.000     C          0.506645  
         C21       1.0000    0.32960   0.52000   0.96680   Biso      1.000     C          -0.148599           
         C22       1.0000    0.64951   0.25562   0.55039   Biso      1.000     C          0.5939760000000001  
         C23       1.0000    0.26280   0.42880   0.00970   Biso      1.000     C          0.085694  
         C24       1.0000    0.78600   0.83780   0.17680   Biso      1.000     C          -0.152094           
         C25       1.0000    0.69422   0.36664   0.01420   Biso      1.000     C          0.024391999999999997          
         C26       1.0000    0.21860   0.92520   0.23212   Biso      1.000     C          0.501758  
         C27       1.0000    0.94771   0.92802   0.47648   Biso      1.000     C          0.505443  
         C28       1.0000    0.19040   0.52000   0.46680   Biso      1.000     C          -0.151078           
         C29       1.0000    0.16600   0.42880   0.50970   Biso      1.000     C          0.088077  
         C30       1.0000    0.40520   0.55180   0.58360   Biso      1.000     C          0.072848  
         C31       1.0000    0.43840   0.64620   0.54300   Biso      1.000     C          -0.13508599999999998          
         C32       1.0000    0.32758   0.63336   0.48580   Biso      1.000     C          0.025136000000000002          
         C33       1.0000    0.35049   0.74438   0.44961   Biso      1.000     C          0.593975  
         C34       1.0000    0.94820   0.16220   0.32320   Biso      1.000     C          -0.152141           
         C35       1.0000    0.60611   0.25562   0.05039   Biso      1.000     C          0.595188  
         C36       1.0000    0.03530   0.22060   0.26820   Biso      1.000     C          0.079881  
         C37       1.0000    0.73710   0.20160   0.27740   Biso      1.000     C          -0.133909           
         C38       1.0000    0.79524   0.14988   0.32688   Biso      1.000     C          0.017459  
         C39       1.0000    0.69124   0.08068   0.38290   Biso      1.000     C          0.636386  
         C40       1.0000    0.29340   0.07480   0.26788   Biso      1.000     C          0.503165  
         C41       1.0000    0.01969   0.07198   0.02352   Biso      1.000     C          0.506645  
         C42       1.0000    0.67040   0.48000   0.03320   Biso      1.000     C          -0.14859  
         C43       1.0000    0.73720   0.57120   0.99030   Biso      1.000     C          0.08569299999999999           
         C44       1.0000    0.85340   0.44820   0.91640   Biso      1.000     C          0.074191  
         C45       1.0000    0.79220   0.35380   0.95700   Biso      1.000     C          -0.134925           
         C46       1.0000    0.83320   0.26080   0.22500   Biso      1.000     C          0.078301  
         C47       1.0000    0.20780   0.64620   0.04300   Biso      1.000     C          -0.134935           
         C48       1.0000    0.14660   0.55180   0.08360   Biso      1.000     C          0.074191  
         C49       1.0000    0.39389   0.74438   0.94961   Biso      1.000     C          0.595186  
         C50       1.0000    0.38944   0.08068   0.88290   Biso      1.000     C          0.637838  
         C51       1.0000    0.35464   0.14988   0.82688   Biso      1.000     C          0.017213  
         C52       1.0000    0.46450   0.20160   0.77740   Biso      1.000     C          -0.133625           
         C53       1.0000    0.30578   0.63336   0.98580   Biso      1.000     C          0.024405  
         C54       1.0000    0.18530   0.22060   0.76820   Biso      1.000     C          0.08065399999999999           
         C55       1.0000    0.21400   0.16220   0.82320   Biso      1.000     C          -0.152095           
         C56       1.0000    0.42760   0.26080   0.72500   Biso      1.000     C          0.07921900000000001           
         Cu1       1.0000    0.09411   0.32844   0.13452   Biso      1.000     Cu          0.33674699999999996           
         Cu2       1.0000    0.76567   0.67156   0.36548   Biso      1.000     Cu          0.337269  
         Cu3       1.0000    0.90589   0.67156   0.86548   Biso      1.000     Cu          0.336754  
         Cu4       1.0000    0.23433   0.32844   0.63452   Biso      1.000     Cu          0.337265  
         H1        1.0000    0.46390   0.28140   0.44540   Biso      1.000     H          0.131696  
         H2        1.0000    0.00750   0.86840   0.64260   Biso      1.000     H          0.136348  
         H3        1.0000    0.86170   0.77280   0.73440   Biso      1.000     H          0.100438  
         H4        1.0000    0.20580   0.70260   0.80740   Biso      1.000     H          0.094065  
         H5        1.0000    0.36530   0.80320   0.72070   Biso      1.000     H          0.138275  
         H6        1.0000    0.38990   0.50460   0.92560   Biso      1.000     H          0.130145  
         H7        1.0000    0.18250   0.71860   0.05460   Biso      1.000     H          0.13111099999999998           
         H8        1.0000    0.08140   0.56300   0.12310   Biso      1.000     H          0.09484   
         H9        1.0000    0.13910   0.13160   0.85740   Biso      1.000     H          0.136027  
         H10       1.0000    0.08890   0.22720   0.76560   Biso      1.000     H          0.100053  
         H11       1.0000    0.51840   0.43700   0.37690   Biso      1.000     H          0.09545   
         H12       1.0000    0.56210   0.19680   0.77930   Biso      1.000     H          0.138498  
         H13       1.0000    0.27950   0.35220   0.99630   Biso      1.000     H          0.102094  
         H14       1.0000    0.50320   0.29740   0.69260   Biso      1.000     H          0.093639  
         H15       1.0000    0.88530   0.49540   0.57440   Biso      1.000     H          0.131024  
         H16       1.0000    0.43790   0.80320   0.22070   Biso      1.000     H          0.138499  
         H17       1.0000    0.11470   0.50460   0.42560   Biso      1.000     H          0.131023  
         H18       1.0000    0.07270   0.35220   0.49630   Biso      1.000     H          0.101614  
         H19       1.0000    0.48160   0.56300   0.62310   Biso      1.000     H          0.095449  
         H20       1.0000    0.53610   0.71860   0.55460   Biso      1.000     H          0.131695  
         H21       1.0000    0.92730   0.64780   0.50370   Biso      1.000     H          0.101615  
         H22       1.0000    0.13830   0.22720   0.26560   Biso      1.000     H          0.100437  
         H23       1.0000    0.79420   0.29740   0.19260   Biso      1.000     H          0.094064  
         H24       1.0000    0.63470   0.19680   0.27930   Biso      1.000     H          0.138274  
         H25       1.0000    0.99250   0.13160   0.35740   Biso      1.000     H          0.136347  
         H26       1.0000    0.72050   0.64780   0.00370   Biso      1.000     H          0.102095  
         H27       1.0000    0.91860   0.43700   0.87690   Biso      1.000     H          0.09484   
         H28       1.0000    0.81750   0.28140   0.94540   Biso      1.000     H          0.13111   
         H29       1.0000    0.86090   0.86840   0.14260   Biso      1.000     H          0.136027  
         H30       1.0000    0.91110   0.77280   0.23440   Biso      1.000     H          0.10005399999999999           
         H31       1.0000    0.49680   0.70260   0.30740   Biso      1.000     H          0.09364   
         H32       1.0000    0.61010   0.49540   0.07440   Biso      1.000     H          0.130145  
         N1        1.0000    0.71152   0.73224   0.28120   Biso      1.000     N          -0.186898           
         N2        1.0000    0.02072   0.73224   0.78120   Biso      1.000     N          -0.185559           
         N3        1.0000    0.82350   0.55480   0.93120   Biso      1.000     N          -0.180567           
         N4        1.0000    0.97928   0.26776   0.21880   Biso      1.000     N          -0.185559           
         N5        1.0000    0.26870   0.44520   0.56880   Biso      1.000     N          -0.181446           
         N6        1.0000    0.28848   0.26776   0.71880   Biso      1.000     N          -0.186898           
         N7        1.0000    0.17650   0.44520   0.06880   Biso      1.000     N          -0.180567           
         N8        1.0000    0.73130   0.55480   0.43120   Biso      1.000     N          -0.181445           
         Nd1       1.0000    0.67054   0.97294   0.92694   Biso      1.000     Nd          2.085094  
         Nd2       1.0000    0.30240   0.97294   0.42694   Biso      1.000     Nd          2.084433  
         Nd3       1.0000    0.32946   0.02706   0.07306   Biso      1.000     Nd          2.085094  
         Nd4       1.0000    0.69760   0.02706   0.57306   Biso      1.000     Nd          2.084433  
         O1        1.0000    0.68407   0.92274   0.05640   Biso      1.000     O          -0.6508010000000001           
         O2        1.0000    0.51018   0.26796   0.09886   Biso      1.000     O          -0.5941390000000001           
         O3        1.0000    0.62455   0.14990   0.02688   Biso      1.000     O          -0.721476           
         O4        1.0000    0.13665   0.12910   0.07684   Biso      1.000     O          -0.58595  
         O5        1.0000    0.93372   0.12264   0.00418   Biso      1.000     O          -0.590446           
         O6        1.0000    0.34498   0.14256   0.21940   Biso      1.000     O          -0.604738           
         O7        1.0000    0.54491   0.03542   0.36444   Biso      1.000     O          -0.657054           
         O8        1.0000    0.50949   0.96458   0.13556   Biso      1.000     O          -0.658242           
         O9        1.0000    0.76133   0.07726   0.44360   Biso      1.000     O          -0.650437           
         O10       1.0000    0.24222   0.73204   0.40114   Biso      1.000     O          -0.593595           
         O11       1.0000    0.47465   0.85010   0.47312   Biso      1.000     O          -0.720877           
         O12       1.0000    0.00755   0.87090   0.42316   Biso      1.000     O          -0.585277           
         O13       1.0000    0.81108   0.87736   0.49582   Biso      1.000     O          -0.589661           
         O14       1.0000    0.29338   0.11676   0.34230   Biso      1.000     O          -0.610007           
         O15       1.0000    0.82338   0.11676   0.84230   Biso      1.000     O          -0.609345           
         O16       1.0000    0.79758   0.14256   0.71940   Biso      1.000     O          -0.6043609999999999           
         O17       1.0000    0.18892   0.12264   0.50418   Biso      1.000     O          -0.589661           
         O18       1.0000    0.99245   0.12910   0.57684   Biso      1.000     O          -0.585277           
         O19       1.0000    0.52535   0.14990   0.52688   Biso      1.000     O          -0.7208760000000001           
         O20       1.0000    0.75778   0.26796   0.59886   Biso      1.000     O          -0.593595           
         O21       1.0000    0.23867   0.92274   0.55640   Biso      1.000     O          -0.650436           
         O22       1.0000    0.45509   0.96458   0.63556   Biso      1.000     O          -0.657053           
         O23       1.0000    0.70662   0.88324   0.65770   Biso      1.000     O          -0.610008           
         O24       1.0000    0.65502   0.85744   0.78060   Biso      1.000     O          -0.604738           
         O25       1.0000    0.06628   0.87736   0.99582   Biso      1.000     O          -0.590446           
         O26       1.0000    0.86335   0.87090   0.92316   Biso      1.000     O          -0.58595  
         O27       1.0000    0.37545   0.85010   0.97312   Biso      1.000     O          -0.721476           
         O28       1.0000    0.48982   0.73204   0.90114   Biso      1.000     O          -0.5941390000000001           
         O29       1.0000    0.31593   0.07726   0.94360   Biso      1.000     O          -0.6508010000000001           
         O30       1.0000    0.49051   0.03542   0.86444   Biso      1.000     O          -0.658243           
         O31       1.0000    0.20242   0.85744   0.28060   Biso      1.000     O          -0.6043609999999999           
         O32       1.0000    0.17662   0.88324   0.15770   Biso      1.000     O          -0.609345 