
##########################################################################
#               Crystallographic Information Format file
#               Produced by PyCifRW module
#
#  This is a CIF file.  CIF has been adopted by the International
#  Union of Crystallography as the standard for data archiving and
#  transmission.
#
#  For information on this file format, follow the CIF links at
#  http://www.iucr.org
##########################################################################

data_image0

_cell_length_a                          13.4071
_cell_length_b                          15.794
_cell_length_c                          17.8147
_cell_angle_alpha                       93.021
_cell_angle_beta                        90
_cell_angle_gamma                       90
_symmetry_space_group_name_H-M          'P 1'
_symmetry_int_tables_number             1
loop_
  _symmetry_equiv_pos_as_xyz
         'x, y, z' 
loop_
  _atom_site_label
  _atom_site_occupancy
  _atom_site_fract_x
  _atom_site_fract_y
  _atom_site_fract_z
  _atom_site_thermal_displace_type
  _atom_site_B_iso_or_equiv
  _atom_site_type_symbol
  _atom_site_charge
         Ag1       1.0000    0.23038   0.70157   0.13086   Biso      1.000     Ag          0.391832  
         Ag2       1.0000    0.76962   0.29843   0.86914   Biso      1.000     Ag          0.391843  
         Ag3       1.0000    0.73038   0.29843   0.36914   Biso      1.000     Ag          0.391839  
         Ag4       1.0000    0.26962   0.70157   0.63086   Biso      1.000     Ag          0.391838  
         C1        1.0000    0.79890   0.47460   0.04110   Biso      1.000     C          0.06698   
         C2        1.0000    0.76620   0.49860   0.19180   Biso      1.000     C          -0.127506           
         C3        1.0000    0.01980   0.86660   0.79810   Biso      1.000     C          -0.071367           
         C4        1.0000    0.73170   0.42320   0.07540   Biso      1.000     C          -0.159612           
         C5        1.0000    0.29890   0.52540   0.45890   Biso      1.000     C          0.06698   
         C6        1.0000    0.21590   0.56470   0.34770   Biso      1.000     C          0.007184  
         C7        1.0000    0.27040   0.07090   0.08780   Biso      1.000     C          -0.171105           
         C8        1.0000    0.86580   0.88350   0.29390   Biso      1.000     C          0.549868  
         C9        1.0000    0.18150   0.93840   0.15920   Biso      1.000     C          0.007984  
         C10       1.0000    0.51980   0.13340   0.70190   Biso      1.000     C          -0.071366           
         C11       1.0000    0.79450   0.94340   0.33680   Biso      1.000     C          0.00607   
         C12       1.0000    0.26620   0.50140   0.30820   Biso      1.000     C          -0.127502           
         C13       1.0000    0.15980   0.95040   0.08690   Biso      1.000     C          -0.168499           
         C14       1.0000    0.88580   0.62060   0.20070   Biso      1.000     C          0.531612  
         C15       1.0000    0.45020   0.07790   0.89160   Biso      1.000     C          -0.126983           
         C16       1.0000    0.09090   0.82400   0.68050   Biso      1.000     C          0.108808  
         C17       1.0000    0.67950   0.20000   0.01130   Biso      1.000     C          0.090687  
         C18       1.0000    0.61710   0.15240   0.05100   Biso      1.000     C          -0.093483           
         C19       1.0000    0.20130   0.01980   0.05330   Biso      1.000     C          0.06279   
         C20       1.0000    0.58690   0.18090   0.66670   Biso      1.000     C          -0.133722           
         C21       1.0000    0.95020   0.92210   0.60840   Biso      1.000     C          -0.126983           
         C22       1.0000    0.77040   0.92910   0.41220   Biso      1.000     C          -0.171103           
         C23       1.0000    0.24900   0.99110   0.19820   Biso      1.000     C          -0.158246           
         C24       1.0000    0.44830   0.08130   0.81790   Biso      1.000     C          -0.104376           
         C25       1.0000    0.03840   0.88340   0.48610   Biso      1.000     C          -0.064413           
         C26       1.0000    0.84790   0.53930   0.07920   Biso      1.000     C          -0.155892           
         C27       1.0000    0.64810   0.37720   0.19350   Biso      1.000     C          0.575931  
         C28       1.0000    0.54980   0.92210   0.10840   Biso      1.000     C          -0.126984           
         C29       1.0000    0.32050   0.80000   0.98870   Biso      1.000     C          0.090687  
         C30       1.0000    0.61420   0.62060   0.70070   Biso      1.000     C          0.531598  
         C31       1.0000    0.90340   0.16950   0.39850   Biso      1.000     C          0.120253  
         C32       1.0000    0.66940   0.55250   0.65630   Biso      1.000     C          0.023978  
         C33       1.0000    0.23380   0.50140   0.80820   Biso      1.000     C          -0.127506           
         C34       1.0000    0.16940   0.44750   0.84370   Biso      1.000     C          0.02398   
         C35       1.0000    0.48020   0.86660   0.29810   Biso      1.000     C          -0.071367           
         C36       1.0000    0.85190   0.37720   0.69350   Biso      1.000     C          0.575933  
         C37       1.0000    0.84120   0.22570   0.21050   Biso      1.000     C          0.109334  
         C38       1.0000    0.81850   0.06160   0.84080   Biso      1.000     C          0.007983  
         C39       1.0000    0.31850   0.93840   0.65920   Biso      1.000     C          0.007984  
         C40       1.0000    0.20110   0.52540   0.95890   Biso      1.000     C          0.066982  
         C41       1.0000    0.96160   0.11660   0.51390   Biso      1.000     C          -0.064416           
         C42       1.0000    0.65210   0.53930   0.57920   Biso      1.000     C          -0.155893           
         C43       1.0000    0.26830   0.57680   0.92460   Biso      1.000     C          -0.159612           
         C44       1.0000    0.40340   0.83050   0.10150   Biso      1.000     C          0.120255  
         C45       1.0000    0.73380   0.49860   0.69180   Biso      1.000     C          -0.127502           
         C46       1.0000    0.29870   0.01980   0.55330   Biso      1.000     C          0.062774  
         C47       1.0000    0.35190   0.62280   0.80650   Biso      1.000     C          0.575932  
         C48       1.0000    0.63420   0.88350   0.79390   Biso      1.000     C          0.549889  
         C49       1.0000    0.79870   0.98020   0.94670   Biso      1.000     C          0.06277   
         C50       1.0000    0.40910   0.82400   0.18050   Biso      1.000     C          0.108805  
         C51       1.0000    0.72960   0.92910   0.91220   Biso      1.000     C          -0.171087           
         C52       1.0000    0.28410   0.56470   0.84770   Biso      1.000     C          0.007192  
         C53       1.0000    0.05170   0.08130   0.31790   Biso      1.000     C          -0.104404           
         C54       1.0000    0.83060   0.55250   0.15630   Biso      1.000     C          0.023981  
         C55       1.0000    0.02710   0.87890   0.56280   Biso      1.000     C          0.056987  
         C56       1.0000    0.97290   0.12110   0.43720   Biso      1.000     C          0.056985  
         C57       1.0000    0.53840   0.11660   0.01390   Biso      1.000     C          -0.064398           
         C58       1.0000    0.84020   0.04960   0.91310   Biso      1.000     C          -0.168494           
         C59       1.0000    0.78410   0.43530   0.65230   Biso      1.000     C          0.007185  
         C60       1.0000    0.76830   0.42320   0.57540   Biso      1.000     C          -0.159609           
         C61       1.0000    0.20550   0.05660   0.66320   Biso      1.000     C          0.00607   
         C62       1.0000    0.11420   0.37940   0.79930   Biso      1.000     C          0.53163   
         C63       1.0000    0.36890   0.86780   0.70020   Biso      1.000     C          0.557041  
         C64       1.0000    0.04980   0.07790   0.39160   Biso      1.000     C          -0.126957           
         C65       1.0000    0.55170   0.91870   0.18210   Biso      1.000     C          -0.104376           
         C66       1.0000    0.15210   0.46070   0.92080   Biso      1.000     C          -0.155891           
         C67       1.0000    0.86890   0.13220   0.79980   Biso      1.000     C          0.55704   
         C68       1.0000    0.48230   0.87110   0.22130   Biso      1.000     C          0.076085  
         C69       1.0000    0.82050   0.20000   0.51130   Biso      1.000     C          0.090683  
         C70       1.0000    0.91310   0.18090   0.16670   Biso      1.000     C          -0.133741           
         C71       1.0000    0.88290   0.15240   0.55100   Biso      1.000     C          -0.093465           
         C72       1.0000    0.13420   0.11650   0.70610   Biso      1.000     C          0.549922  
         C73       1.0000    0.70110   0.47460   0.54110   Biso      1.000     C          0.06698   
         C74       1.0000    0.41310   0.81910   0.33330   Biso      1.000     C          -0.133722           
         C75       1.0000    0.38290   0.84760   0.94900   Biso      1.000     C          -0.093483           
         C76       1.0000    0.75100   0.00890   0.80180   Biso      1.000     C          -0.158237           
         C77       1.0000    0.34120   0.77430   0.28950   Biso      1.000     C          0.109334  
         C78       1.0000    0.90910   0.17600   0.31950   Biso      1.000     C          0.108803  
         C79       1.0000    0.70550   0.94340   0.83680   Biso      1.000     C          0.006072  
         C80       1.0000    0.47290   0.87890   0.06280   Biso      1.000     C          0.056985  
         C81       1.0000    0.25100   0.99110   0.69820   Biso      1.000     C          -0.15824  
         C82       1.0000    0.98230   0.12890   0.27870   Biso      1.000     C          0.076085  
         C83       1.0000    0.98020   0.13340   0.20190   Biso      1.000     C          -0.07135  
         C84       1.0000    0.46160   0.88340   0.98610   Biso      1.000     C          -0.064399           
         C85       1.0000    0.22960   0.07090   0.58780   Biso      1.000     C          -0.171088           
         C86       1.0000    0.68150   0.06160   0.34080   Biso      1.000     C          0.00798   
         C87       1.0000    0.23170   0.57680   0.42460   Biso      1.000     C          -0.15961  
         C88       1.0000    0.08690   0.81910   0.83330   Biso      1.000     C          -0.133722           
         C89       1.0000    0.52710   0.12110   0.93720   Biso      1.000     C          0.056986  
         C90       1.0000    0.29450   0.05660   0.16320   Biso      1.000     C          0.006074  
         C91       1.0000    0.59090   0.17600   0.81950   Biso      1.000     C          0.108807  
         C92       1.0000    0.13110   0.86780   0.20020   Biso      1.000     C          0.557039  
         C93       1.0000    0.09660   0.83050   0.60150   Biso      1.000     C          0.120255  
         C94       1.0000    0.65880   0.22570   0.71050   Biso      1.000     C          0.109335  
         C95       1.0000    0.71590   0.43530   0.15230   Biso      1.000     C          0.007189  
         C96       1.0000    0.74900   0.00890   0.30180   Biso      1.000     C          -0.158236           
         C97       1.0000    0.15880   0.77430   0.78950   Biso      1.000     C          0.109333  
         C98       1.0000    0.38580   0.37940   0.29930   Biso      1.000     C          0.531607  
         C99       1.0000    0.01770   0.87110   0.72130   Biso      1.000     C          0.076084  
         C100      1.0000    0.51770   0.12890   0.77870   Biso      1.000     C          0.076084  
         C101      1.0000    0.11710   0.84760   0.44900   Biso      1.000     C          -0.093485           
         C102      1.0000    0.36580   0.11650   0.20610   Biso      1.000     C          0.549882  
         C103      1.0000    0.33060   0.44750   0.34370   Biso      1.000     C          0.023978  
         C104      1.0000    0.17950   0.80000   0.48870   Biso      1.000     C          0.090703  
         C105      1.0000    0.63110   0.13220   0.29980   Biso      1.000     C          0.557041  
         C106      1.0000    0.65980   0.04960   0.41310   Biso      1.000     C          -0.168498           
         C107      1.0000    0.14810   0.62280   0.30650   Biso      1.000     C          0.57593   
         C108      1.0000    0.94830   0.91870   0.68210   Biso      1.000     C          -0.104377           
         C109      1.0000    0.59660   0.16950   0.89850   Biso      1.000     C          0.120254  
         C110      1.0000    0.34020   0.95040   0.58690   Biso      1.000     C          -0.168493           
         C111      1.0000    0.70130   0.98020   0.44670   Biso      1.000     C          0.062785  
         C112      1.0000    0.34790   0.46070   0.42080   Biso      1.000     C          -0.155891           
         Cd1       1.0000    0.01316   0.74651   0.26068   Biso      1.000     Cd          0.977185  
         Cd2       1.0000    0.51316   0.25349   0.23932   Biso      1.000     Cd          0.977185  
         Cd3       1.0000    0.98684   0.25349   0.73932   Biso      1.000     Cd          0.977186  
         Cd4       1.0000    0.48684   0.74651   0.76068   Biso      1.000     Cd          0.977188  
         H1        1.0000    0.61780   0.08690   0.44010   Biso      1.000     H          0.124019  
         H2        1.0000    0.73190   0.22690   0.03700   Biso      1.000     H          0.089817  
         H3        1.0000    0.30250   0.61890   0.95250   Biso      1.000     H          0.122035  
         H4        1.0000    0.89180   0.57380   0.05440   Biso      1.000     H          0.129186  
         H5        1.0000    0.47310   0.10260   0.67320   Biso      1.000     H          0.121295  
         H6        1.0000    0.49050   0.08820   0.04080   Biso      1.000     H          0.118703  
         H7        1.0000    0.20810   0.74440   0.81350   Biso      1.000     H          0.092127  
         H8        1.0000    0.76350   0.01780   0.25180   Biso      1.000     H          0.117639  
         H9        1.0000    0.69750   0.38110   0.04750   Biso      1.000     H          0.122033  
         H10       1.0000    0.19750   0.61890   0.45250   Biso      1.000     H          0.122034  
         H11       1.0000    0.30090   0.11410   0.06260   Biso      1.000     H          0.136405  
         H12       1.0000    0.25700   0.49440   0.25650   Biso      1.000     H          0.122224  
         H13       1.0000    0.40120   0.04720   0.91520   Biso      1.000     H          0.109434  
         H14       1.0000    0.08580   0.81600   0.88530   Biso      1.000     H          0.125115  
         H15       1.0000    0.89930   0.94890   0.70920   Biso      1.000     H          0.124472  
         H16       1.0000    0.23190   0.77310   0.46300   Biso      1.000     H          0.089816  
         H17       1.0000    0.39930   0.05110   0.79080   Biso      1.000     H          0.124473  
         H18       1.0000    0.11780   0.91310   0.05990   Biso      1.000     H          0.12402   
         H19       1.0000    0.75700   0.50560   0.24350   Biso      1.000     H          0.122224  
         H20       1.0000    0.70810   0.25560   0.68650   Biso      1.000     H          0.092127  
         H21       1.0000    0.99050   0.91180   0.45920   Biso      1.000     H          0.118704  
         H22       1.0000    0.58580   0.18400   0.61470   Biso      1.000     H          0.125116  
         H23       1.0000    0.26350   0.98220   0.24820   Biso      1.000     H          0.117639  
         H24       1.0000    0.97310   0.89740   0.82680   Biso      1.000     H          0.121294  
         H25       1.0000    0.90120   0.95280   0.58480   Biso      1.000     H          0.109434  
         H26       1.0000    0.39180   0.42620   0.44560   Biso      1.000     H          0.129186  
         H27       1.0000    0.12780   0.85550   0.39820   Biso      1.000     H          0.134388  
         H28       1.0000    0.19910   0.11410   0.56260   Biso      1.000     H          0.136403  
         H29       1.0000    0.38220   0.91310   0.55990   Biso      1.000     H          0.124019  
         H30       1.0000    0.10820   0.42620   0.94560   Biso      1.000     H          0.129186  
         H31       1.0000    0.60820   0.57380   0.55440   Biso      1.000     H          0.129186  
         H32       1.0000    0.76810   0.22690   0.53700   Biso      1.000     H          0.089818  
         H33       1.0000    0.09880   0.04720   0.41520   Biso      1.000     H          0.109433  
         H34       1.0000    0.69910   0.88590   0.93740   Biso      1.000     H          0.136402  
         H35       1.0000    0.10070   0.05110   0.29080   Biso      1.000     H          0.124474  
         H36       1.0000    0.37220   0.85550   0.89820   Biso      1.000     H          0.134388  
         H37       1.0000    0.87220   0.14450   0.60180   Biso      1.000     H          0.134387  
         H38       1.0000    0.29190   0.74440   0.31350   Biso      1.000     H          0.092127  
         H39       1.0000    0.41420   0.81600   0.38530   Biso      1.000     H          0.125117  
         H40       1.0000    0.23650   0.98220   0.74820   Biso      1.000     H          0.117635  
         H41       1.0000    0.59880   0.95280   0.08480   Biso      1.000     H          0.109434  
         H42       1.0000    0.88220   0.08690   0.94010   Biso      1.000     H          0.124019  
         H43       1.0000    0.50950   0.91180   0.95920   Biso      1.000     H          0.118703  
         H44       1.0000    0.73650   0.01780   0.75180   Biso      1.000     H          0.11764   
         H45       1.0000    0.02690   0.10260   0.17320   Biso      1.000     H          0.121293  
         H46       1.0000    0.00950   0.08820   0.54080   Biso      1.000     H          0.118704  
         H47       1.0000    0.52690   0.89740   0.32680   Biso      1.000     H          0.121295  
         H48       1.0000    0.60070   0.94890   0.20920   Biso      1.000     H          0.124472  
         H49       1.0000    0.26810   0.77310   0.96300   Biso      1.000     H          0.089818  
         H50       1.0000    0.80250   0.38110   0.54750   Biso      1.000     H          0.122032  
         H51       1.0000    0.74300   0.50560   0.74350   Biso      1.000     H          0.122224  
         H52       1.0000    0.91420   0.18400   0.11470   Biso      1.000     H          0.125116  
         H53       1.0000    0.79190   0.25560   0.18650   Biso      1.000     H          0.092127  
         H54       1.0000    0.24300   0.49440   0.75650   Biso      1.000     H          0.122224  
         H55       1.0000    0.80090   0.88590   0.43740   Biso      1.000     H          0.136403  
         H56       1.0000    0.62780   0.14450   0.10180   Biso      1.000     H          0.134388  
         I1        1.0000    0.33135   0.54402   0.57529   Biso      1.000     I          0.117353  
         I2        1.0000    0.16028   0.04104   0.93957   Biso      1.000     I          0.010766  
         I3        1.0000    0.66865   0.45598   0.42471   Biso      1.000     I          0.117361  
         I4        1.0000    0.33972   0.04104   0.43957   Biso      1.000     I          0.010788  
         I5        1.0000    0.16865   0.54402   0.07529   Biso      1.000     I          0.117359  
         I6        1.0000    0.83972   0.95896   0.06043   Biso      1.000     I          0.010802  
         I7        1.0000    0.83135   0.45598   0.92471   Biso      1.000     I          0.117362  
         I8        1.0000    0.66028   0.95896   0.56043   Biso      1.000     I          0.010778  
         N1        1.0000    0.84170   0.22650   0.28400   Biso      1.000     N          -0.2245   
         N2        1.0000    0.34170   0.77350   0.21600   Biso      1.000     N          -0.2245   
         N3        1.0000    0.67150   0.21150   0.93640   Biso      1.000     N          -0.228653           
         N4        1.0000    0.65830   0.22650   0.78400   Biso      1.000     N          -0.224503           
         N5        1.0000    0.15830   0.77350   0.71600   Biso      1.000     N          -0.224501           
         N6        1.0000    0.17150   0.78850   0.56360   Biso      1.000     N          -0.228652           
         N7        1.0000    0.82850   0.21150   0.43640   Biso      1.000     N          -0.228649           
         N8        1.0000    0.32850   0.78850   0.06360   Biso      1.000     N          -0.22865  
         O1        1.0000    0.59280   0.82710   0.83120   Biso      1.000     O          -0.527143           
         O2        1.0000    0.62240   0.89190   0.72520   Biso      1.000     O          -0.477326           
         O3        1.0000    0.39730   0.67930   0.84700   Biso      1.000     O          -0.549512           
         O4        1.0000    0.60730   0.62000   0.77110   Biso      1.000     O          -0.46914  
         O5        1.0000    0.10730   0.38000   0.72890   Biso      1.000     O          -0.469158           
         O6        1.0000    0.12240   0.10810   0.77480   Biso      1.000     O          -0.477356           
         O7        1.0000    0.90770   0.19260   0.84160   Biso      1.000     O          -0.547042           
         O8        1.0000    0.09280   0.17290   0.66880   Biso      1.000     O          -0.527144           
         O9        1.0000    0.40770   0.80740   0.65840   Biso      1.000     O          -0.547034           
         O10       1.0000    0.36120   0.61500   0.73830   Biso      1.000     O          -0.550833           
         O11       1.0000    0.87550   0.12860   0.73220   Biso      1.000     O          -0.524364           
         O12       1.0000    0.37550   0.87140   0.76780   Biso      1.000     O          -0.524365           
         O13       1.0000    0.57230   0.67830   0.66390   Biso      1.000     O          -0.481943           
         O14       1.0000    0.89730   0.32070   0.65300   Biso      1.000     O          -0.549511           
         O15       1.0000    0.92770   0.67830   0.16390   Biso      1.000     O          -0.481953           
         O16       1.0000    0.89270   0.62000   0.27110   Biso      1.000     O          -0.469148           
         O17       1.0000    0.40720   0.17290   0.16880   Biso      1.000     O          -0.527141           
         O18       1.0000    0.13880   0.61500   0.23830   Biso      1.000     O          -0.550833           
         O19       1.0000    0.42770   0.32170   0.33610   Biso      1.000     O          -0.481947           
         O20       1.0000    0.37760   0.10810   0.27480   Biso      1.000     O          -0.477313           
         O21       1.0000    0.63880   0.38500   0.26170   Biso      1.000     O          -0.550833           
         O22       1.0000    0.09230   0.80740   0.15840   Biso      1.000     O          -0.547034           
         O23       1.0000    0.86120   0.38500   0.76170   Biso      1.000     O          -0.550833           
         O24       1.0000    0.90720   0.82710   0.33120   Biso      1.000     O          -0.527137           
         O25       1.0000    0.60270   0.32070   0.15300   Biso      1.000     O          -0.549512           
         O26       1.0000    0.62450   0.12860   0.23220   Biso      1.000     O          -0.524367           
         O27       1.0000    0.59230   0.19260   0.34160   Biso      1.000     O          -0.547039           
         O28       1.0000    0.39270   0.38000   0.22890   Biso      1.000     O          -0.469136           
         O29       1.0000    0.87760   0.89190   0.22520   Biso      1.000     O          -0.477296           
         O30       1.0000    0.10270   0.67930   0.34700   Biso      1.000     O          -0.549513           
         O31       1.0000    0.12450   0.87140   0.26780   Biso      1.000     O          -0.524365           
         O32       1.0000    0.07230   0.32170   0.83610   Biso      1.000     O          -0.481965 