
##########################################################################
#               Crystallographic Information Format file
#               Produced by PyCifRW module
#
#  This is a CIF file.  CIF has been adopted by the International
#  Union of Crystallography as the standard for data archiving and
#  transmission.
#
#  For information on this file format, follow the CIF links at
#  http://www.iucr.org
##########################################################################

data_image0

_cell_length_a                          9.153
_cell_length_b                          9.4866
_cell_length_c                          11.1531
_cell_angle_alpha                       90.929
_cell_angle_beta                        99.746
_cell_angle_gamma                       105.174
_symmetry_space_group_name_H-M          'P 1'
_symmetry_int_tables_number             1
loop_
  _symmetry_equiv_pos_as_xyz
         'x, y, z' 
loop_
  _atom_site_label
  _atom_site_occupancy
  _atom_site_fract_x
  _atom_site_fract_y
  _atom_site_fract_z
  _atom_site_thermal_displace_type
  _atom_site_B_iso_or_equiv
  _atom_site_type_symbol
  _atom_site_charge
         C1        1.0000    0.00820   0.67480   0.86980   Biso      1.000     C          -0.214064           
         C2        1.0000    0.89570   0.56510   0.79650   Biso      1.000     C          -0.116098           
         C3        1.0000    0.17070   0.51310   0.90130   Biso      1.000     C          -0.194176           
         C4        1.0000    0.80200   0.31260   0.69670   Biso      1.000     C          0.265816  
         C5        1.0000    0.14480   0.64740   0.92050   Biso      1.000     C          0.282491  
         C6        1.0000    0.19800   0.68740   0.30330   Biso      1.000     C          0.265816  
         C7        1.0000    0.42450   0.23550   0.19670   Biso      1.000     C          0.59568   
         C8        1.0000    0.82930   0.48690   0.09870   Biso      1.000     C          -0.194175           
         C9        1.0000    0.36600   0.13750   0.08200   Biso      1.000     C          -0.006907           
         C10       1.0000    0.94300   0.59640   0.17080   Biso      1.000     C          -0.094446           
         C11       1.0000    0.08070   0.57110   0.22480   Biso      1.000     C          0.005274  
         C12       1.0000    0.35190   0.19620   0.96870   Biso      1.000     C          -0.142501           
         C13       1.0000    0.10430   0.43490   0.20350   Biso      1.000     C          -0.116097           
         C14       1.0000    0.05700   0.40360   0.82920   Biso      1.000     C          -0.094446           
         C15       1.0000    0.30430   0.10510   0.86280   Biso      1.000     C          0.00424   
         C16       1.0000    0.85520   0.35260   0.07950   Biso      1.000     C          0.282486  
         C17       1.0000    0.28300   0.89620   0.98350   Biso      1.000     C          0.271039  
         C18       1.0000    0.57550   0.76450   0.80330   Biso      1.000     C          0.59568   
         C19       1.0000    0.63400   0.86250   0.91800   Biso      1.000     C          -0.006907           
         C20       1.0000    0.64810   0.80380   0.03130   Biso      1.000     C          -0.1425   
         C21       1.0000    0.99180   0.32520   0.13020   Biso      1.000     C          -0.214059           
         C22       1.0000    0.69570   0.89490   0.13720   Biso      1.000     C          0.004241  
         C23       1.0000    0.26990   0.95370   0.86990   Biso      1.000     C          -0.225374           
         C24       1.0000    0.66820   0.01410   0.91070   Biso      1.000     C          -0.218444           
         C25       1.0000    0.33180   0.98590   0.08930   Biso      1.000     C          -0.218445           
         C26       1.0000    0.73010   0.04630   0.13010   Biso      1.000     C          -0.225376           
         C27       1.0000    0.29890   0.17050   0.74050   Biso      1.000     C          0.605883  
         C28       1.0000    0.71700   0.10380   0.01650   Biso      1.000     C          0.27104   
         C29       1.0000    0.70110   0.82950   0.25950   Biso      1.000     C          0.605882  
         C30       1.0000    0.91930   0.42890   0.77520   Biso      1.000     C          0.005275  
         Cd1       1.0000    0.50418   0.52321   0.35003   Biso      1.000     Cd          1.034042  
         Cd2       1.0000    0.66161   0.86616   0.53287   Biso      1.000     Cd          0.960032  
         Cd3       1.0000    0.33839   0.13384   0.46713   Biso      1.000     Cd          0.960039  
         Cd4       1.0000    0.49582   0.47679   0.64997   Biso      1.000     Cd          1.034042  
         H1        1.0000    0.07370   0.31220   0.81710   Biso      1.000     H          0.117246  
         H2        1.0000    0.23860   0.89210   0.79930   Biso      1.000     H          0.14314   
         H3        1.0000    0.62550   0.70280   0.03630   Biso      1.000     H          0.128913  
         H4        1.0000    0.34170   0.94570   0.16480   Biso      1.000     H          0.135192  
         H5        1.0000    0.65830   0.05430   0.83520   Biso      1.000     H          0.135192  
         H6        1.0000    0.76140   0.10790   0.20070   Biso      1.000     H          0.14314   
         H7        1.0000    0.80330   0.58330   0.76130   Biso      1.000     H          0.094775  
         H8        1.0000    0.00900   0.23460   0.11570   Biso      1.000     H          0.134105  
         H9        1.0000    0.19670   0.41670   0.23870   Biso      1.000     H          0.094775  
         H10       1.0000    0.92630   0.68780   0.18290   Biso      1.000     H          0.117246  
         H11       1.0000    0.73650   0.50430   0.06360   Biso      1.000     H          0.142883  
         H12       1.0000    0.71900   0.61700   0.53300   Biso      1.000     H          0.464773  
         H13       1.0000    0.26350   0.49570   0.93640   Biso      1.000     H          0.142883  
         H14       1.0000    0.99100   0.76540   0.88430   Biso      1.000     H          0.134106  
         H15       1.0000    0.37450   0.29720   0.96370   Biso      1.000     H          0.128913  
         H16       1.0000    0.28100   0.38300   0.46700   Biso      1.000     H          0.464773  
         N1        1.0000    0.59290   0.18850   0.58526   Biso      1.000     N          -0.065645           
         N2        1.0000    0.82840   0.18840   0.65930   Biso      1.000     N          -0.275188           
         N3        1.0000    0.65740   0.31580   0.65254   Biso      1.000     N          -0.286146           
         N4        1.0000    0.17160   0.81160   0.34070   Biso      1.000     N          -0.275183           
         N5        1.0000    0.30560   0.88660   0.41030   Biso      1.000     N          -0.054642           
         N6        1.0000    0.40710   0.81150   0.41474   Biso      1.000     N          -0.065604           
         N7        1.0000    0.34260   0.68420   0.34746   Biso      1.000     N          -0.286151           
         N8        1.0000    0.69440   0.11340   0.58970   Biso      1.000     N          -0.054601           
         O1        1.0000    0.46150   0.17930   0.29508   Biso      1.000     O          -0.604917           
         O2        1.0000    0.43830   0.37051   0.18614   Biso      1.000     O          -0.539913           
         O3        1.0000    0.25200   0.08390   0.64603   Biso      1.000     O          -0.578276           
         O4        1.0000    0.34120   0.30700   0.74150   Biso      1.000     O          -0.585784           
         O5        1.0000    0.36010   0.37373   0.46863   Biso      1.000     O          -0.960716           
         O6        1.0000    0.73930   0.25259   0.00175   Biso      1.000     O          -0.222333           
         O7        1.0000    0.74800   0.91610   0.35397   Biso      1.000     O          -0.578276           
         O8        1.0000    0.65880   0.69300   0.25850   Biso      1.000     O          -0.585784           
         O9        1.0000    0.56170   0.62949   0.81386   Biso      1.000     O          -0.539913           
         O10       1.0000    0.53850   0.82070   0.70492   Biso      1.000     O          -0.604917           
         O11       1.0000    0.26070   0.74741   0.99825   Biso      1.000     O          -0.222333           
         O12       1.0000    0.63990   0.62627   0.53137   Biso      1.000     O          -0.960715 