
##########################################################################
#               Crystallographic Information Format file
#               Produced by PyCifRW module
#
#  This is a CIF file.  CIF has been adopted by the International
#  Union of Crystallography as the standard for data archiving and
#  transmission.
#
#  For information on this file format, follow the CIF links at
#  http://www.iucr.org
##########################################################################

data_image0

_cell_length_a                          12.2342
_cell_length_b                          13.9583
_cell_length_c                          19.6064
_cell_angle_alpha                       83.8179
_cell_angle_beta                        75.7751
_cell_angle_gamma                       64.0082
_symmetry_space_group_name_H-M          'P 1'
_symmetry_int_tables_number             1
loop_
  _symmetry_equiv_pos_as_xyz
         'x, y, z' 
loop_
  _atom_site_label
  _atom_site_occupancy
  _atom_site_fract_x
  _atom_site_fract_y
  _atom_site_fract_z
  _atom_site_thermal_displace_type
  _atom_site_B_iso_or_equiv
  _atom_site_type_symbol
  _atom_site_charge
         C1        1.0000    0.53650   0.14380   0.63900   Biso      1.000     C          -0.075909           
         C2        1.0000    0.06733   0.27534   0.59150   Biso      1.000     C          0.098509  
         C3        1.0000    0.93040   0.40580   0.67360   Biso      1.000     C          0.075336  
         C4        1.0000    0.00290   0.35500   0.72290   Biso      1.000     C          -0.170232           
         C5        1.0000    0.11128   0.26324   0.70430   Biso      1.000     C          0.075224  
         C6        1.0000    0.25310   0.02520   0.72800   Biso      1.000     C          0.248534  
         C7        1.0000    0.40950   0.11020   0.90490   Biso      1.000     C          0.233354  
         C8        1.0000    0.31970   0.14380   0.86100   Biso      1.000     C          -0.075266           
         C9        1.0000    0.25986   0.25228   0.84540   Biso      1.000     C          0.185691  
         C10       1.0000    0.18920   0.21480   0.75850   Biso      1.000     C          0.18115699999999998           
         C11       1.0000    0.14098   0.22224   0.63840   Biso      1.000     C          -0.16583900000000001          
         C12       1.0000    0.24270   0.10600   0.77340   Biso      1.000     C          -0.077981           
         C13       1.0000    0.33200   0.79800   0.89240   Biso      1.000     C          -0.108155           
         C14       1.0000    0.28430   0.90320   0.86820   Biso      1.000     C          -0.133866           
         C15       1.0000    0.36297   0.95366   0.84700   Biso      1.000     C          0.054439  
         C16       1.0000    0.48820   0.89780   0.84760   Biso      1.000     C          -0.126863           
         C17       1.0000    0.53550   0.79380   0.87100   Biso      1.000     C          -0.081717           
         C18       1.0000    0.45607   0.74306   0.89340   Biso      1.000     C          -0.023846           
         C19       1.0000    0.50413   0.63034   0.92180   Biso      1.000     C          0.570561  
         C20       1.0000    0.21590   0.47780   0.59720   Biso      1.000     C          0.101772  
         C21       1.0000    0.36880   0.40780   0.50060   Biso      1.000     C          0.086725  
         C22       1.0000    0.30910   0.06840   0.82610   Biso      1.000     C          0.06374099999999999           
         C23       1.0000    0.44810   0.33660   0.53990   Biso      1.000     C          -0.180127           
         C24       1.0000    0.25890   0.33540   0.88730   Biso      1.000     C          0.075611  
         C25       1.0000    0.30630   0.47780   0.90280   Biso      1.000     C          0.10042000000000001           
         C26       1.0000    0.65733   0.27534   0.90850   Biso      1.000     C          0.099205  
         C27       1.0000    0.66380   0.40580   0.82640   Biso      1.000     C          0.076124  
         C28       1.0000    0.64210   0.35500   0.77710   Biso      1.000     C          -0.170215           
         C29       1.0000    0.62548   0.26324   0.79570   Biso      1.000     C          0.076409  
         C30       1.0000    0.72170   0.02520   0.77200   Biso      1.000     C          0.24736799999999998           
         C31       1.0000    0.48030   0.11020   0.59510   Biso      1.000     C          0.233647  
         C32       1.0000    0.28820   0.40860   0.64210   Biso      1.000     C          -0.178289           
         C33       1.0000    0.48786   0.25228   0.65460   Biso      1.000     C          0.186059  
         C34       1.0000    0.59600   0.21480   0.74150   Biso      1.000     C          0.18087   
         C35       1.0000    0.30320   0.40860   0.85790   Biso      1.000     C          -0.178276           
         C36       1.0000    0.65130   0.10600   0.72660   Biso      1.000     C          -0.078222           
         C37       1.0000    0.87000   0.79800   0.60760   Biso      1.000     C          -0.106445           
         C38       1.0000    0.81250   0.90320   0.63180   Biso      1.000     C          -0.13658399999999998          
         C39       1.0000    0.68337   0.95366   0.65300   Biso      1.000     C          0.054925999999999996          
         C40       1.0000    0.61400   0.89780   0.65240   Biso      1.000     C          -0.12779300000000002          
         C41       1.0000    0.67070   0.79380   0.62900   Biso      1.000     C          -0.080462           
         C42       1.0000    0.80087   0.74306   0.60660   Biso      1.000     C          -0.024367           
         C43       1.0000    0.86553   0.63034   0.57820   Biso      1.000     C          0.571677  
         C44       1.0000    0.21530   0.33660   0.96010   Biso      1.000     C          -0.17844300000000002          
         C45       1.0000    0.22340   0.40780   0.99940   Biso      1.000     C          0.087013  
         C46       1.0000    0.62250   0.06840   0.67390   Biso      1.000     C          0.06390900000000001           
         C47       1.0000    0.49587   0.36966   0.07820   Biso      1.000     C          0.570561  
         C48       1.0000    0.54393   0.25694   0.10660   Biso      1.000     C          -0.023849000000000002         
         C49       1.0000    0.46450   0.20620   0.12900   Biso      1.000     C          -0.081717           
         C50       1.0000    0.31663   0.04634   0.34700   Biso      1.000     C          0.054927  
         C51       1.0000    0.18750   0.09680   0.36820   Biso      1.000     C          -0.13658399999999998          
         C52       1.0000    0.13000   0.20200   0.39240   Biso      1.000     C          -0.106446           
         C53       1.0000    0.37750   0.93160   0.32610   Biso      1.000     C          0.063908  
         C54       1.0000    0.34870   0.89400   0.27340   Biso      1.000     C          -0.078222           
         C55       1.0000    0.40400   0.78520   0.25850   Biso      1.000     C          0.18087   
         C56       1.0000    0.51214   0.74772   0.34540   Biso      1.000     C          0.186059  
         C57       1.0000    0.46350   0.85620   0.36100   Biso      1.000     C          -0.075907           
         C58       1.0000    0.51970   0.88980   0.40490   Biso      1.000     C          0.233647  
         C59       1.0000    0.38600   0.10220   0.34760   Biso      1.000     C          -0.12779300000000002          
         C60       1.0000    0.27830   0.97480   0.22800   Biso      1.000     C          0.24736799999999998           
         C61       1.0000    0.35790   0.64500   0.22290   Biso      1.000     C          -0.170216           
         C62       1.0000    0.33620   0.59420   0.17360   Biso      1.000     C          0.076124  
         C63       1.0000    0.34267   0.72466   0.09150   Biso      1.000     C          0.09920599999999999           
         C64       1.0000    0.36322   0.77776   0.13840   Biso      1.000     C          -0.167517           
         C65       1.0000    0.59430   0.66460   0.38730   Biso      1.000     C          0.076784  
         C66       1.0000    0.71180   0.59140   0.35790   Biso      1.000     C          -0.178284           
         C67       1.0000    0.78410   0.52220   0.40280   Biso      1.000     C          0.101773  
         C68       1.0000    0.63120   0.59220   0.49940   Biso      1.000     C          0.086726  
         C69       1.0000    0.55190   0.66340   0.46010   Biso      1.000     C          -0.180125           
         C70       1.0000    0.37452   0.73676   0.20430   Biso      1.000     C          0.076414  
         C71       1.0000    0.32930   0.20620   0.37100   Biso      1.000     C          -0.080461           
         C72       1.0000    0.19913   0.25694   0.39340   Biso      1.000     C          -0.024367           
         C73       1.0000    0.13447   0.36966   0.42180   Biso      1.000     C          0.571678  
         C74       1.0000    0.51180   0.10220   0.15240   Biso      1.000     C          -0.126864           
         C75       1.0000    0.63703   0.04634   0.15300   Biso      1.000     C          0.054439999999999995          
         C76       1.0000    0.71570   0.09680   0.13180   Biso      1.000     C          -0.133867           
         C77       1.0000    0.66800   0.20200   0.10760   Biso      1.000     C          -0.108151           
         C78       1.0000    0.69090   0.93160   0.17390   Biso      1.000     C          0.063739  
         C79       1.0000    0.75730   0.89400   0.22660   Biso      1.000     C          -0.07798  
         C80       1.0000    0.81080   0.78520   0.24150   Biso      1.000     C          0.18115699999999998           
         C81       1.0000    0.74014   0.74772   0.15460   Biso      1.000     C          0.18568900000000002           
         C82       1.0000    0.68030   0.85620   0.13900   Biso      1.000     C          -0.075266           
         C83       1.0000    0.59050   0.88980   0.09510   Biso      1.000     C          0.233354  
         C84       1.0000    0.74690   0.97480   0.27200   Biso      1.000     C          0.24853499999999998           
         C85       1.0000    0.88872   0.73676   0.29570   Biso      1.000     C          0.07522100000000001           
         C86       1.0000    0.99710   0.64500   0.27710   Biso      1.000     C          -0.170229           
         C87       1.0000    0.06960   0.59420   0.32640   Biso      1.000     C          0.075336  
         C88       1.0000    0.93267   0.72466   0.40850   Biso      1.000     C          0.098508  
         C89       1.0000    0.85902   0.77776   0.36160   Biso      1.000     C          -0.16583900000000001          
         C90       1.0000    0.74110   0.66460   0.11270   Biso      1.000     C          0.075611  
         C91       1.0000    0.69680   0.59140   0.14210   Biso      1.000     C          -0.178277           
         C92       1.0000    0.69370   0.52220   0.09720   Biso      1.000     C          0.100422  
         C93       1.0000    0.77660   0.59220   0.00060   Biso      1.000     C          0.087009  
         C94       1.0000    0.78470   0.66340   0.03990   Biso      1.000     C          -0.17843699999999998          
         C95       1.0000    0.63678   0.22224   0.86160   Biso      1.000     C          -0.16751  
         C96       1.0000    0.40570   0.33540   0.61270   Biso      1.000     C          0.07679   
         Cu1       1.0000    0.69679   0.44396   0.96223   Biso      1.000     Cu          0.39545399999999997           
         Cu2       1.0000    0.85925   0.44396   0.53777   Biso      1.000     Cu          0.396165  
         Cu3       1.0000    0.30321   0.55604   0.03777   Biso      1.000     Cu          0.39545399999999997           
         Cu4       1.0000    0.14075   0.55604   0.46223   Biso      1.000     Cu          0.396173  
         H1        1.0000    0.46960   0.71080   0.48200   Biso      1.000     H          0.135149  
         H2        1.0000    0.63040   0.15700   0.87490   Biso      1.000     H          0.126969  
         H3        1.0000    0.66240   0.24660   0.95440   Biso      1.000     H          0.09804299999999999           
         H4        1.0000    0.67380   0.46960   0.81370   Biso      1.000     H          0.106205  
         H5        1.0000    0.63890   0.38340   0.73100   Biso      1.000     H          0.127944  
         H6        1.0000    0.95800   0.76420   0.59170   Biso      1.000     H          0.112319  
         H7        1.0000    0.86140   0.93980   0.63360   Biso      1.000     H          0.11928399999999999           
         H8        1.0000    0.52590   0.93160   0.66840   Biso      1.000     H          0.10746300000000002           
         H9        1.0000    0.62200   0.75660   0.62810   Biso      1.000     H          0.12133   
         H10       1.0000    0.18040   0.28920   0.98200   Biso      1.000     H          0.134704  
         H11       1.0000    0.33590   0.52920   0.88230   Biso      1.000     H          0.09847   
         H12       1.0000    0.25700   0.41200   0.69160   Biso      1.000     H          0.12775699999999998           
         H13       1.0000    0.21260   0.15700   0.62510   Biso      1.000     H          0.126372  
         H14       1.0000    0.09100   0.24660   0.54560   Biso      1.000     H          0.09789199999999999           
         H15       1.0000    0.85660   0.46960   0.68630   Biso      1.000     H          0.106948  
         H16       1.0000    0.97770   0.38340   0.76900   Biso      1.000     H          0.127502  
         H17       1.0000    0.27780   0.76420   0.90830   Biso      1.000     H          0.113023  
         H18       1.0000    0.19880   0.93980   0.86640   Biso      1.000     H          0.118164  
         H19       1.0000    0.54250   0.93160   0.83160   Biso      1.000     H          0.106978  
         H20       1.0000    0.62140   0.75660   0.87190   Biso      1.000     H          0.12140699999999999           
         H21       1.0000    0.19340   0.40840   0.04890   Biso      1.000     H          0.098371  
         H22       1.0000    0.13490   0.52920   0.61770   Biso      1.000     H          0.09818400000000001           
         H23       1.0000    0.33100   0.41200   0.80840   Biso      1.000     H          0.127567  
         H24       1.0000    0.53040   0.28920   0.51800   Biso      1.000     H          0.135149  
         H25       1.0000    0.39820   0.40840   0.45110   Biso      1.000     H          0.099006  
         H26       1.0000    0.60180   0.59160   0.54890   Biso      1.000     H          0.09900700000000001           
         H27       1.0000    0.86510   0.47080   0.38230   Biso      1.000     H          0.09818400000000001           
         H28       1.0000    0.74300   0.58800   0.30840   Biso      1.000     H          0.12775699999999998           
         H29       1.0000    0.36960   0.84300   0.12510   Biso      1.000     H          0.126969  
         H30       1.0000    0.33760   0.75340   0.04560   Biso      1.000     H          0.09804199999999999           
         H31       1.0000    0.32620   0.53040   0.18630   Biso      1.000     H          0.106205  
         H32       1.0000    0.36110   0.61660   0.26900   Biso      1.000     H          0.127943  
         H33       1.0000    0.13860   0.06020   0.36640   Biso      1.000     H          0.11928399999999999           
         H34       1.0000    0.47410   0.06840   0.33160   Biso      1.000     H          0.10746300000000002           
         H35       1.0000    0.37800   0.24340   0.37190   Biso      1.000     H          0.12132899999999999           
         H36       1.0000    0.04200   0.23580   0.40830   Biso      1.000     H          0.11232   
         H37       1.0000    0.80120   0.06020   0.13360   Biso      1.000     H          0.118164  
         H38       1.0000    0.80660   0.59160   0.95110   Biso      1.000     H          0.098371  
         H39       1.0000    0.66410   0.47080   0.11770   Biso      1.000     H          0.09847   
         H40       1.0000    0.66900   0.58800   0.19160   Biso      1.000     H          0.12756800000000001           
         H41       1.0000    0.78740   0.84300   0.37490   Biso      1.000     H          0.126371  
         H42       1.0000    0.90900   0.75340   0.45440   Biso      1.000     H          0.09789099999999999           
         H43       1.0000    0.14340   0.53040   0.31370   Biso      1.000     H          0.106947  
         H44       1.0000    0.02230   0.61660   0.23100   Biso      1.000     H          0.127501  
         H45       1.0000    0.72220   0.23580   0.09170   Biso      1.000     H          0.113023  
         H46       1.0000    0.81960   0.71080   0.01800   Biso      1.000     H          0.134705  
         H47       1.0000    0.45750   0.06840   0.16840   Biso      1.000     H          0.106978  
         H48       1.0000    0.37860   0.24340   0.12810   Biso      1.000     H          0.12140699999999999           
         N1        1.0000    0.74350   0.03660   0.30670   Biso      1.000     N          -0.35435900000000004          
         N2        1.0000    0.03631   0.63438   0.39227   Biso      1.000     N          -0.199499           
         N3        1.0000    0.72884   0.52352   0.02850   Biso      1.000     N          -0.189555           
         N4        1.0000    0.48581   0.71378   0.29298   Biso      1.000     N          -0.32162399999999997          
         N5        1.0000    0.74764   0.52352   0.47150   Biso      1.000     N          -0.191174           
         N6        1.0000    0.21990   0.03660   0.19330   Biso      1.000     N          -0.35332600000000003          
         N7        1.0000    0.32931   0.63438   0.10773   Biso      1.000     N          -0.19977999999999999          
         N8        1.0000    0.52950   0.90820   0.05570   Biso      1.000     N          -0.323776           
         N9        1.0000    0.56230   0.90820   0.44430   Biso      1.000     N          -0.323708           
         N10       1.0000    0.80041   0.71378   0.20702   Biso      1.000     N          -0.32090100000000005          
         N11       1.0000    0.47050   0.09180   0.94430   Biso      1.000     N          -0.323775           
         N12       1.0000    0.67069   0.36562   0.89227   Biso      1.000     N          -0.19977899999999998          
         N13       1.0000    0.78010   0.96340   0.80670   Biso      1.000     N          -0.35332600000000003          
         N14       1.0000    0.43770   0.09180   0.55570   Biso      1.000     N          -0.323709           
         N15       1.0000    0.51419   0.28622   0.70702   Biso      1.000     N          -0.32162399999999997          
         N16       1.0000    0.27116   0.47648   0.97150   Biso      1.000     N          -0.189556           
         N17       1.0000    0.96369   0.36562   0.60773   Biso      1.000     N          -0.199498           
         N18       1.0000    0.25650   0.96340   0.69330   Biso      1.000     N          -0.35435900000000004          
         N19       1.0000    0.19959   0.28622   0.79298   Biso      1.000     N          -0.32090100000000005          
         N20       1.0000    0.25236   0.47648   0.52850   Biso      1.000     N          -0.191175           
         O1        1.0000    0.57049   0.40702   0.05085   Biso      1.000     O          -0.562645           
         O2        1.0000    0.37873   0.41794   0.08424   Biso      1.000     O          -0.551359           
         O3        1.0000    0.97751   0.59298   0.55085   Biso      1.000     O          -0.563554           
         O4        1.0000    0.20333   0.41794   0.41576   Biso      1.000     O          -0.552081           
         O5        1.0000    0.42951   0.59298   0.94915   Biso      1.000     O          -0.5626439999999999           
         O6        1.0000    0.62127   0.58206   0.91576   Biso      1.000     O          -0.551358           
         O7        1.0000    0.79667   0.58206   0.58424   Biso      1.000     O          -0.552078           
         O8        1.0000    0.02249   0.40702   0.44915   Biso      1.000     O          -0.563553 