
##########################################################################
#               Crystallographic Information Format file
#               Produced by PyCifRW module
#
#  This is a CIF file.  CIF has been adopted by the International
#  Union of Crystallography as the standard for data archiving and
#  transmission.
#
#  For information on this file format, follow the CIF links at
#  http://www.iucr.org
##########################################################################

data_image0

_cell_length_a                          11.1389
_cell_length_b                          11.2652
_cell_length_c                          11.4139
_cell_angle_alpha                       76.38
_cell_angle_beta                        66.369
_cell_angle_gamma                       78.964
_symmetry_space_group_name_H-M          'P 1'
_symmetry_int_tables_number             1
loop_
  _symmetry_equiv_pos_as_xyz
         'x, y, z' 
loop_
  _atom_site_label
  _atom_site_occupancy
  _atom_site_fract_x
  _atom_site_fract_y
  _atom_site_fract_z
  _atom_site_thermal_displace_type
  _atom_site_B_iso_or_equiv
  _atom_site_type_symbol
  _atom_site_charge
         C1        1.0000    0.99260   0.59770   0.76830   Biso      1.000     C          -0.145629           
         C2        1.0000    0.36630   0.88980   0.49670   Biso      1.000     C          0.097613  
         C3        1.0000    0.23130   0.40070   0.23890   Biso      1.000     C          0.592321  
         C4        1.0000    0.89270   0.35770   0.49610   Biso      1.000     C          0.100498  
         C5        1.0000    0.02660   0.36670   0.43910   Biso      1.000     C          -0.15551900000000002          
         C6        1.0000    0.08630   0.38770   0.30470   Biso      1.000     C          0.0445    
         C7        1.0000    0.00740   0.40230   0.23170   Biso      1.000     C          -0.145522           
         C8        1.0000    0.87340   0.39470   0.29690   Biso      1.000     C          0.106378  
         C9        1.0000    0.78070   0.41410   0.22580   Biso      1.000     C          0.554435  
         C10       1.0000    0.48540   0.16990   0.24240   Biso      1.000     C          0.5977    
         C11       1.0000    0.48730   0.94720   0.23450   Biso      1.000     C          -0.13709200000000002          
         C12       1.0000    0.46040   0.82710   0.29810   Biso      1.000     C          0.10670999999999999           
         C13       1.0000    0.48950   0.72400   0.22640   Biso      1.000     C          0.568624  
         C14       1.0000    0.21930   0.58590   0.77420   Biso      1.000     C          0.554815  
         C15       1.0000    0.12660   0.60530   0.70310   Biso      1.000     C          0.10653499999999999           
         C16       1.0000    0.91370   0.61230   0.69530   Biso      1.000     C          0.044587  
         C17       1.0000    0.97340   0.63330   0.56090   Biso      1.000     C          -0.155582           
         C18       1.0000    0.10730   0.64230   0.50390   Biso      1.000     C          0.100678  
         C19       1.0000    0.76870   0.59930   0.76110   Biso      1.000     C          0.592234  
         C20       1.0000    0.63370   0.11020   0.50330   Biso      1.000     C          0.097662  
         C21       1.0000    0.61090   0.98920   0.56000   Biso      1.000     C          -0.14416400000000001          
         C22       1.0000    0.54720   0.96040   0.69320   Biso      1.000     C          0.031426  
         C23       1.0000    0.51460   0.83010   0.75760   Biso      1.000     C          0.597537  
         C24       1.0000    0.51270   0.05280   0.76550   Biso      1.000     C          -0.136863           
         C25       1.0000    0.53960   0.17290   0.70190   Biso      1.000     C          0.106482  
         C26       1.0000    0.51050   0.27600   0.77360   Biso      1.000     C          0.568401  
         C27       1.0000    0.38910   0.01080   0.44000   Biso      1.000     C          -0.144536           
         C28       1.0000    0.45280   0.03960   0.30680   Biso      1.000     C          0.031183999999999996          
         Co1       1.0000    0.47058   0.42902   0.28981   Biso      1.000     Co          1.1402299999999999  
         Co2       1.0000    0.49522   0.35896   0.00924   Biso      1.000     Co          0.983999  
         Co3       1.0000    0.52942   0.57098   0.71019   Biso      1.000     Co          1.139808  
         Co4       1.0000    0.39376   0.60917   0.50041   Biso      1.000     Co          0.750792  
         Co5       1.0000    0.50478   0.64104   0.99076   Biso      1.000     Co          0.9840209999999999  
         Co6       1.0000    0.60624   0.39083   0.49959   Biso      1.000     Co          0.744002  
         H1        1.0000    0.63860   0.92710   0.50810   Biso      1.000     H          0.14072   
         H2        1.0000    0.04490   0.41710   0.13950   Biso      1.000     H          0.158843  
         H3        1.0000    0.07710   0.35860   0.49130   Biso      1.000     H          0.14160699999999998           
         H4        1.0000    0.85340   0.33890   0.58810   Biso      1.000     H          0.103973  
         H5        1.0000    0.32420   0.87010   0.58850   Biso      1.000     H          0.107253  
         H6        1.0000    0.52890   0.96490   0.14260   Biso      1.000     H          0.15428499999999998           
         H7        1.0000    0.47110   0.03510   0.85740   Biso      1.000     H          0.154473  
         H8        1.0000    0.95510   0.58290   0.86050   Biso      1.000     H          0.158831  
         H9        1.0000    0.92290   0.64140   0.50870   Biso      1.000     H          0.14162   
         H10       1.0000    0.14660   0.66110   0.41190   Biso      1.000     H          0.10400799999999999           
         H11       1.0000    0.67580   0.12990   0.41150   Biso      1.000     H          0.10748699999999999           
         H12       1.0000    0.36140   0.07290   0.49190   Biso      1.000     H          0.14053800000000002           
         N1        1.0000    0.18410   0.62590   0.57250   Biso      1.000     N          -0.21990500000000002          
         N2        1.0000    0.59870   0.19950   0.57260   Biso      1.000     N          -0.209312           
         N3        1.0000    0.81590   0.37410   0.42750   Biso      1.000     N          -0.21896100000000002          
         N4        1.0000    0.40130   0.80050   0.42740   Biso      1.000     N          -0.211022           
         O1        1.0000    0.54550   0.37720   0.70140   Biso      1.000     O          -0.501484           
         O2        1.0000    0.45750   0.25760   0.89490   Biso      1.000     O          -0.45849700000000004          
         O3        1.0000    0.53680   0.75740   0.68250   Biso      1.000     O          -0.553032           
         O4        1.0000    0.47100   0.80790   0.87880   Biso      1.000     O          -0.529734           
         O5        1.0000    0.72320   0.54680   0.70410   Biso      1.000     O          -0.578311           
         O6        1.0000    0.70700   0.63940   0.86520   Biso      1.000     O          -0.501732           
         O7        1.0000    0.17850   0.56580   0.89250   Biso      1.000     O          -0.43316099999999996          
         O8        1.0000    0.34050   0.59490   0.69880   Biso      1.000     O          -0.516756           
         O9        1.0000    0.54940   0.47050   0.09470   Biso      1.000     O          -0.7332489999999999           
         O10       1.0000    0.41830   0.42490   0.48830   Biso      1.000     O          -0.659704           
         O11       1.0000    0.54250   0.74240   0.10510   Biso      1.000     O          -0.45947899999999997          
         O12       1.0000    0.46320   0.24260   0.31750   Biso      1.000     O          -0.5534100000000001           
         O13       1.0000    0.52900   0.19210   0.12120   Biso      1.000     O          -0.530055           
         O14       1.0000    0.27680   0.45320   0.29590   Biso      1.000     O          -0.5778479999999999           
         O15       1.0000    0.29300   0.36060   0.13480   Biso      1.000     O          -0.501588           
         O16       1.0000    0.82150   0.43420   0.10750   Biso      1.000     O          -0.43241899999999994          
         O17       1.0000    0.65950   0.40510   0.30120   Biso      1.000     O          -0.513876           
         O18       1.0000    0.58170   0.57510   0.51170   Biso      1.000     O          -0.660483           
         O19       1.0000    0.45450   0.62280   0.29860   Biso      1.000     O          -0.505182           
         O20       1.0000    0.45060   0.52950   0.90530   Biso      1.000     O          -0.732701 