
##########################################################################
#               Crystallographic Information Format file
#               Produced by PyCifRW module
#
#  This is a CIF file.  CIF has been adopted by the International
#  Union of Crystallography as the standard for data archiving and
#  transmission.
#
#  For information on this file format, follow the CIF links at
#  http://www.iucr.org
##########################################################################

data_image0

_cell_length_a                          7.5481
_cell_length_b                          10.888
_cell_length_c                          19.046
_cell_angle_alpha                       79.948
_cell_angle_beta                        79.57
_cell_angle_gamma                       73.077
_symmetry_space_group_name_H-M          'P 1'
_symmetry_int_tables_number             1
loop_
  _symmetry_equiv_pos_as_xyz
         'x, y, z' 
loop_
  _atom_site_label
  _atom_site_occupancy
  _atom_site_fract_x
  _atom_site_fract_y
  _atom_site_fract_z
  _atom_site_thermal_displace_type
  _atom_site_B_iso_or_equiv
  _atom_site_type_symbol
  _atom_site_charge
         C1        1.0000    0.15696   0.52686   0.10683   Biso      1.000     C          0.561901  
         C2        1.0000    0.29814   0.29461   0.22384   Biso      1.000     C          0.581536  
         C3        1.0000    0.03800   0.44171   0.14511   Biso      1.000     C          -0.057044           
         C4        1.0000    0.10374   0.34083   0.19962   Biso      1.000     C          -0.095921           
         C5        1.0000    0.97260   0.27379   0.23641   Biso      1.000     C          0.188916  
         C6        1.0000    0.79237   0.29650   0.21977   Biso      1.000     C          -0.172378           
         C7        1.0000    0.73390   0.39232   0.16280   Biso      1.000     C          -0.097923           
         C8        1.0000    0.85516   0.46608   0.12726   Biso      1.000     C          -0.128422           
         C9        1.0000    0.03836   0.05822   0.30235   Biso      1.000     C          0.295388  
         C10       1.0000    0.02490   0.99859   0.24414   Biso      1.000     C          -0.206827           
         C11       1.0000    0.05450   0.86474   0.25446   Biso      1.000     C          -0.062624           
         C12       1.0000    0.09681   0.79246   0.32124   Biso      1.000     C          -0.105006           
         C13       1.0000    0.10097   0.85457   0.37966   Biso      1.000     C          -0.073737           
         C14       1.0000    0.07035   0.98792   0.37053   Biso      1.000     C          -0.218953           
         C15       1.0000    0.14206   0.65199   0.32692   Biso      1.000     C          0.530415  
         C16       1.0000    0.89123   0.06364   0.60542   Biso      1.000     C          0.561223  
         C17       1.0000    0.79488   0.88383   0.74145   Biso      1.000     C          0.600456  
         C18       1.0000    0.02951   0.99324   0.65551   Biso      1.000     C          -0.044816           
         C19       1.0000    0.98239   0.91464   0.71919   Biso      1.000     C          -0.128272           
         C20       1.0000    0.12871   0.84768   0.75972   Biso      1.000     C          0.206817  
         C21       1.0000    0.30859   0.86518   0.74259   Biso      1.000     C          -0.182927           
         C22       1.0000    0.35036   0.94707   0.68018   Biso      1.000     C          -0.086971           
         C23       1.0000    0.21240   0.00765   0.63616   Biso      1.000     C          -0.129017           
         C24       1.0000    0.18198   0.63321   0.82577   Biso      1.000     C          0.27793   
         C25       1.0000    0.30834   0.57610   0.76884   Biso      1.000     C          -0.214543           
         C26       1.0000    0.39657   0.44359   0.77952   Biso      1.000     C          -0.074759           
         C27       1.0000    0.35867   0.36645   0.84500   Biso      1.000     C          -0.099802           
         C28       1.0000    0.23068   0.42602   0.90129   Biso      1.000     C          -0.074727           
         C29       1.0000    0.14358   0.55861   0.89232   Biso      1.000     C          -0.204578           
         C30       1.0000    0.45154   0.22389   0.85562   Biso      1.000     C          0.556557  
         C31       1.0000    0.14797   0.96886   0.93214   Biso      1.000     C          0.103183  
         C32       1.0000    0.92218   0.88631   0.99078   Biso      1.000     C          -0.033312           
         C33       1.0000    0.83756   0.99940   0.95136   Biso      1.000     C          -0.093454           
         C34       1.0000    0.96007   0.17314   0.87102   Biso      1.000     C          0.217405  
         C35       1.0000    0.05738   0.18245   0.80144   Biso      1.000     C          -0.23772  
         C36       1.0000    0.02421   0.30424   0.76037   Biso      1.000     C          0.209705  
         C37       1.0000    0.90110   0.41467   0.78662   Biso      1.000     C          -0.25106  
         C38       1.0000    0.81168   0.40198   0.85759   Biso      1.000     C          0.215663  
         C39       1.0000    0.83898   0.28153   0.90017   Biso      1.000     C          -0.244687           
         C40       1.0000    0.70059   0.64102   0.85799   Biso      1.000     C          -0.081502           
         C41       1.0000    0.57293   0.71916   0.90331   Biso      1.000     C          -0.024678           
         C42       1.0000    0.57187   0.51981   0.94841   Biso      1.000     C          0.113101  
         C43       1.0000    0.30293   0.26423   0.66779   Biso      1.000     C          0.116666  
         C44       1.0000    0.18214   0.37256   0.57157   Biso      1.000     C          -0.032922           
         C45       1.0000    0.03886   0.38789   0.62813   Biso      1.000     C          -0.083896           
         C46       1.0000    0.60430   0.00704   0.45983   Biso      1.000     C          0.110228  
         C47       1.0000    0.45051   0.20208   0.41861   Biso      1.000     C          -0.020575           
         C48       1.0000    0.44248   0.12276   0.37168   Biso      1.000     C          -0.062243           
         C49       1.0000    0.57102   0.88720   0.36402   Biso      1.000     C          0.215464  
         C50       1.0000    0.62328   0.76356   0.40243   Biso      1.000     C          -0.267229           
         C51       1.0000    0.64711   0.65724   0.36656   Biso      1.000     C          0.199359  
         C52       1.0000    0.61988   0.67029   0.29472   Biso      1.000     C          -0.2364   
         C53       1.0000    0.56385   0.79567   0.25866   Biso      1.000     C          0.221341  
         C54       1.0000    0.54253   0.90522   0.29185   Biso      1.000     C          -0.240402           
         C55       1.0000    0.44995   0.73349   0.15944   Biso      1.000     C          0.113131  
         C56       1.0000    0.44032   0.90831   0.08103   Biso      1.000     C          -0.026168           
         C57       1.0000    0.51153   0.92703   0.13826   Biso      1.000     C          -0.079202           
         C58       1.0000    0.86488   0.43444   0.38561   Biso      1.000     C          -0.078935           
         C59       1.0000    0.60687   0.48105   0.46583   Biso      1.000     C          0.079578  
         C60       1.0000    0.86320   0.33014   0.43768   Biso      1.000     C          -0.024384           
         H1        1.0000    0.69638   0.24166   0.25064   Biso      1.000     H          0.124627  
         H2        1.0000    0.59266   0.40861   0.14913   Biso      1.000     H          0.125774  
         H3        1.0000    0.81009   0.54621   0.08465   Biso      1.000     H          0.100424  
         H4        1.0000    0.99566   0.05514   0.19231   Biso      1.000     H          0.137385  
         H5        1.0000    0.04920   0.81305   0.21067   Biso      1.000     H          0.11312   
         H6        1.0000    0.13082   0.79606   0.43147   Biso      1.000     H          0.110787  
         H7        1.0000    0.07226   0.03691   0.41573   Biso      1.000     H          0.134524  
         H8        1.0000    0.41682   0.81285   0.77656   Biso      1.000     H          0.122417  
         H9        1.0000    0.49158   0.96116   0.66743   Biso      1.000     H          0.112091  
         H10       1.0000    0.23925   0.07066   0.58579   Biso      1.000     H          0.098378  
         H11       1.0000    0.33825   0.63460   0.71743   Biso      1.000     H          0.128952  
         H12       1.0000    0.49758   0.39841   0.73631   Biso      1.000     H          0.102212  
         H13       1.0000    0.20269   0.36560   0.95239   Biso      1.000     H          0.116048  
         H14       1.0000    0.04852   0.60661   0.93640   Biso      1.000     H          0.13278   
         H15       1.0000    0.28079   0.99180   0.91292   Biso      1.000     H          0.110248  
         H16       1.0000    0.86287   0.81383   0.02628   Biso      1.000     H          0.122863  
         H17       1.0000    0.69258   0.04559   0.94222   Biso      1.000     H          0.13166   
         H18       1.0000    0.14949   0.09624   0.77920   Biso      1.000     H          0.132788  
         H19       1.0000    0.88271   0.50841   0.75303   Biso      1.000     H          0.14538   
         H20       1.0000    0.77351   0.27046   0.95604   Biso      1.000     H          0.14542   
         H21       1.0000    0.78397   0.66604   0.80759   Biso      1.000     H          0.13343   
         H22       1.0000    0.53519   0.82436   0.89814   Biso      1.000     H          0.120017  
         H23       1.0000    0.53985   0.43653   0.98329   Biso      1.000     H          0.12025   
         H24       1.0000    0.39996   0.20608   0.70449   Biso      1.000     H          0.124475  
         H25       1.0000    0.17660   0.40879   0.51487   Biso      1.000     H          0.104051  
         H26       1.0000    0.89102   0.43856   0.63095   Biso      1.000     H          0.139944  
         H27       1.0000    0.68859   0.92599   0.49166   Biso      1.000     H          0.117194  
         H28       1.0000    0.39562   0.30661   0.41495   Biso      1.000     H          0.101626  
         H29       1.0000    0.38036   0.14555   0.32229   Biso      1.000     H          0.137969  
         H30       1.0000    0.64626   0.74849   0.45864   Biso      1.000     H          0.132877  
         H31       1.0000    0.64090   0.58417   0.26879   Biso      1.000     H          0.149472  
         H32       1.0000    0.49952   0.00264   0.26198   Biso      1.000     H          0.147035  
         H33       1.0000    0.43050   0.64099   0.18662   Biso      1.000     H          0.125542  
         H34       1.0000    0.41318   0.97278   0.03105   Biso      1.000     H          0.125624  
         H35       1.0000    0.54965   0.01041   0.14945   Biso      1.000     H          0.156795  
         H36       1.0000    0.96457   0.45127   0.33803   Biso      1.000     H          0.143054  
         H37       1.0000    0.47102   0.53406   0.49048   Biso      1.000     H          0.110436  
         H38       1.0000    0.96287   0.23522   0.44406   Biso      1.000     H          0.127444  
         H39       1.0000    0.22377   0.49840   0.38874   Biso      1.000     H          0.363338  
         H40       1.0000    0.62735   0.07671   0.79883   Biso      1.000     H          0.364232  
         N1        1.0000    0.70200   0.35942   0.48747   Biso      1.000     N          -0.28932  
         N2        1.0000    0.11548   0.86835   0.97877   Biso      1.000     N          -0.276271           
         N3        1.0000    0.98239   0.05063   0.91438   Biso      1.000     N          0.007455  
         N4        1.0000    0.34651   0.29626   0.59710   Biso      1.000     N          -0.291767           
         N5        1.0000    0.11774   0.31777   0.68858   Biso      1.000     N          0.009061  
         N6        1.0000    0.69854   0.51463   0.88690   Biso      1.000     N          0.002679  
         N7        1.0000    0.55085   0.12965   0.47338   Biso      1.000     N          -0.276423           
         N8        1.0000    0.54076   0.99890   0.39815   Biso      1.000     N          0.008     
         N9        1.0000    0.70227   0.52967   0.40450   Biso      1.000     N          0.008297  
         N10       1.0000    0.40141   0.78802   0.09496   Biso      1.000     N          -0.278569           
         N11       1.0000    0.51887   0.81504   0.18758   Biso      1.000     N          0.004115  
         N12       1.0000    0.49311   0.64270   0.95905   Biso      1.000     N          -0.271263           
         O1        1.0000    0.07061   0.63637   0.07143   Biso      1.000     O          -0.560879           
         O2        1.0000    0.33120   0.49847   0.10759   Biso      1.000     O          -0.532071           
         O3        1.0000    0.40709   0.19432   0.19705   Biso      1.000     O          -0.616653           
         O4        1.0000    0.32749   0.34765   0.27293   Biso      1.000     O          -0.573489           
         O5        1.0000    0.02901   0.18629   0.29767   Biso      1.000     O          -0.212679           
         O6        1.0000    0.14682   0.59210   0.27730   Biso      1.000     O          -0.445807           
         O7        1.0000    0.18229   0.58954   0.39553   Biso      1.000     O          -0.529058           
         O8        1.0000    0.94284   0.07906   0.53832   Biso      1.000     O          -0.556035           
         O9        1.0000    0.71846   0.11154   0.63397   Biso      1.000     O          -0.531509           
         O10       1.0000    0.77408   0.79458   0.71215   Biso      1.000     O          -0.566046           
         O11       1.0000    0.67797   0.94316   0.79127   Biso      1.000     O          -0.570854           
         O12       1.0000    0.08379   0.76264   0.82104   Biso      1.000     O          -0.211937           
         O13       1.0000    0.57069   0.18101   0.79814   Biso      1.000     O          -0.513802           
         O14       1.0000    0.41795   0.15434   0.91314   Biso      1.000     O          -0.535583           
         Zn1       1.0000    0.28328   0.71290   0.03334   Biso      1.000     Zn          0.703394  
         Zn2       1.0000    0.60716   0.21506   0.54881   Biso      1.000     Zn          0.70638 