
##########################################################################
#               Crystallographic Information Format file
#               Produced by PyCifRW module
#
#  This is a CIF file.  CIF has been adopted by the International
#  Union of Crystallography as the standard for data archiving and
#  transmission.
#
#  For information on this file format, follow the CIF links at
#  http://www.iucr.org
##########################################################################

data_image0

_cell_length_a                          30.809
_cell_length_b                          5.369
_cell_length_c                          25.126
_cell_angle_alpha                       90
_cell_angle_beta                        127.61
_cell_angle_gamma                       90
_symmetry_space_group_name_H-M          'P 1'
_symmetry_int_tables_number             1
loop_
  _symmetry_equiv_pos_as_xyz
         'x, y, z' 
loop_
  _atom_site_label
  _atom_site_occupancy
  _atom_site_fract_x
  _atom_site_fract_y
  _atom_site_fract_z
  _atom_site_thermal_displace_type
  _atom_site_B_iso_or_equiv
  _atom_site_type_symbol
  _atom_site_charge
         C1        1.0000    0.09250   0.21800   0.38420   Biso      1.000     C          0.290693  
         C2        1.0000    0.19910   0.82000   0.21810   Biso      1.000     C          0.075952  
         C3        1.0000    0.98990   0.58500   0.80960   Biso      1.000     C          -0.030169           
         C4        1.0000    0.16040   0.63500   0.19690   Biso      1.000     C          -0.081157           
         C5        1.0000    0.04360   0.48200   0.86390   Biso      1.000     C          0.284477  
         C6        1.0000    0.16860   0.46800   0.25330   Biso      1.000     C          0.365704  
         C7        1.0000    0.09080   0.75300   0.84640   Biso      1.000     C          0.578436  
         C8        1.0000    0.25360   0.70000   0.34220   Biso      1.000     C          0.567131  
         C9        1.0000    0.23760   0.79600   0.84290   Biso      1.000     C          0.223032  
         C10       1.0000    0.73760   0.29600   0.84290   Biso      1.000     C          0.223026  
         C11       1.0000    0.03110   0.23900   0.35040   Biso      1.000     C          0.050823  
         C12       1.0000    0.69670   0.22400   0.76500   Biso      1.000     C          0.112458  
         C13       1.0000    0.00830   0.03200   0.36570   Biso      1.000     C          0.122006  
         C14       1.0000    0.67490   0.94900   0.74500   Biso      1.000     C          0.11952   
         C15       1.0000    0.95190   0.95600   0.30550   Biso      1.000     C          -0.107893           
         C16       1.0000    0.65840   0.90600   0.67750   Biso      1.000     C          -0.129686           
         C17       1.0000    0.95370   0.07100   0.24740   Biso      1.000     C          0.224855  
         C18       1.0000    0.70940   0.00700   0.69150   Biso      1.000     C          0.306116  
         C19       1.0000    0.01650   0.78900   0.23230   Biso      1.000     C          0.0234    
         C20       1.0000    0.80090   0.82000   0.78190   Biso      1.000     C          0.07597   
         C21       1.0000    0.01010   0.58500   0.19040   Biso      1.000     C          -0.030176           
         C22       1.0000    0.83960   0.63500   0.80310   Biso      1.000     C          -0.081169           
         C23       1.0000    0.95640   0.48200   0.13610   Biso      1.000     C          0.284476  
         C24       1.0000    0.83140   0.46800   0.74670   Biso      1.000     C          0.365712  
         C25       1.0000    0.98350   0.78900   0.76770   Biso      1.000     C          0.023401  
         C26       1.0000    0.90920   0.75300   0.15360   Biso      1.000     C          0.578436  
         C27       1.0000    0.29060   0.00700   0.30850   Biso      1.000     C          0.306116  
         C28       1.0000    0.34160   0.90600   0.32250   Biso      1.000     C          -0.129661           
         C29       1.0000    0.53110   0.73900   0.35040   Biso      1.000     C          0.050864  
         C30       1.0000    0.19670   0.72400   0.76500   Biso      1.000     C          0.112453  
         C31       1.0000    0.50830   0.53200   0.36570   Biso      1.000     C          0.122008  
         C32       1.0000    0.17490   0.44900   0.74500   Biso      1.000     C          0.119523  
         C33       1.0000    0.45190   0.45600   0.30550   Biso      1.000     C          -0.107858           
         C34       1.0000    0.15840   0.40600   0.67750   Biso      1.000     C          -0.129671           
         C35       1.0000    0.45370   0.57100   0.24740   Biso      1.000     C          0.224818  
         C36       1.0000    0.20940   0.50700   0.69150   Biso      1.000     C          0.306117  
         C37       1.0000    0.51650   0.28900   0.23230   Biso      1.000     C          0.023489  
         C38       1.0000    0.30090   0.32000   0.78190   Biso      1.000     C          0.075951  
         C39       1.0000    0.51010   0.08500   0.19040   Biso      1.000     C          -0.0301   
         C40       1.0000    0.33960   0.13500   0.80310   Biso      1.000     C          -0.081152           
         C41       1.0000    0.45640   0.98200   0.13610   Biso      1.000     C          0.284471  
         C42       1.0000    0.33140   0.96800   0.74670   Biso      1.000     C          0.365702  
         C43       1.0000    0.40920   0.25300   0.15360   Biso      1.000     C          0.578434  
         C44       1.0000    0.24640   0.20000   0.65780   Biso      1.000     C          0.567131  
         C45       1.0000    0.90750   0.21800   0.61580   Biso      1.000     C          0.290802  
         C46       1.0000    0.26240   0.29600   0.15710   Biso      1.000     C          0.22301   
         C47       1.0000    0.96890   0.23900   0.64960   Biso      1.000     C          0.050802  
         C48       1.0000    0.30330   0.22400   0.23500   Biso      1.000     C          0.112448  
         C49       1.0000    0.99170   0.03200   0.63430   Biso      1.000     C          0.122034  
         C50       1.0000    0.32510   0.94900   0.25500   Biso      1.000     C          0.119526  
         C51       1.0000    0.04810   0.95600   0.69450   Biso      1.000     C          -0.107963           
         C52       1.0000    0.04630   0.07100   0.75260   Biso      1.000     C          0.224883  
         C53       1.0000    0.74640   0.70000   0.65780   Biso      1.000     C          0.567135  
         C54       1.0000    0.59250   0.71800   0.38420   Biso      1.000     C          0.290629  
         C55       1.0000    0.79060   0.50700   0.30850   Biso      1.000     C          0.306123  
         C56       1.0000    0.76240   0.79600   0.15710   Biso      1.000     C          0.223016  
         C57       1.0000    0.40750   0.71800   0.61580   Biso      1.000     C          0.29064   
         C58       1.0000    0.80330   0.72400   0.23500   Biso      1.000     C          0.112463  
         C59       1.0000    0.49170   0.53200   0.63430   Biso      1.000     C          0.12202   
         C60       1.0000    0.82510   0.44900   0.25500   Biso      1.000     C          0.119524  
         C61       1.0000    0.54810   0.45600   0.69450   Biso      1.000     C          -0.107886           
         C62       1.0000    0.84160   0.40600   0.32250   Biso      1.000     C          -0.129737           
         C63       1.0000    0.54630   0.57100   0.75260   Biso      1.000     C          0.224839  
         C64       1.0000    0.69910   0.32000   0.21810   Biso      1.000     C          0.075971  
         C65       1.0000    0.48350   0.28900   0.76770   Biso      1.000     C          0.023481  
         C66       1.0000    0.66040   0.13500   0.19690   Biso      1.000     C          -0.081184           
         C67       1.0000    0.54360   0.98200   0.86390   Biso      1.000     C          0.284477  
         C68       1.0000    0.66860   0.96800   0.25330   Biso      1.000     C          0.365721  
         C69       1.0000    0.59080   0.25300   0.84640   Biso      1.000     C          0.578437  
         C70       1.0000    0.75360   0.20000   0.34220   Biso      1.000     C          0.567142  
         C71       1.0000    0.48990   0.08500   0.80960   Biso      1.000     C          -0.030208           
         C72       1.0000    0.46890   0.73900   0.64960   Biso      1.000     C          0.050842  
         Cd1       1.0000    0.76400   0.38500   0.57680   Biso      1.000     Cd          1.153363  
         Cd2       1.0000    0.73600   0.88500   0.42320   Biso      1.000     Cd          1.153367  
         Cd3       1.0000    0.31350   0.00000   0.04200   Biso      1.000     Cd          1.158043  
         Cd4       1.0000    0.18650   0.50000   0.95800   Biso      1.000     Cd          1.158033  
         Cd5       1.0000    0.68650   0.00000   0.95800   Biso      1.000     Cd          1.158029  
         Cd6       1.0000    0.26400   0.88500   0.57680   Biso      1.000     Cd          1.153373  
         Cd7       1.0000    0.81350   0.50000   0.04200   Biso      1.000     Cd          1.158036  
         Cd8       1.0000    0.23600   0.38500   0.42320   Biso      1.000     Cd          1.153366  
         N1        1.0000    0.40370   0.04900   0.11400   Biso      1.000     N          -0.435143           
         N2        1.0000    0.21400   0.54400   0.31690   Biso      1.000     N          -0.467401           
         N3        1.0000    0.28600   0.04400   0.68310   Biso      1.000     N          -0.467393           
         N4        1.0000    0.13400   0.28700   0.24100   Biso      1.000     N          -0.190306           
         N5        1.0000    0.04410   0.28100   0.89960   Biso      1.000     N          -0.069925           
         N6        1.0000    0.95590   0.28100   0.10040   Biso      1.000     N          -0.069965           
         N7        1.0000    0.86600   0.28700   0.75900   Biso      1.000     N          -0.190351           
         N8        1.0000    0.75420   0.85300   0.71530   Biso      1.000     N          -0.074226           
         N9        1.0000    0.25420   0.35300   0.71530   Biso      1.000     N          -0.074207           
         N10       1.0000    0.54410   0.78100   0.89960   Biso      1.000     N          -0.069985           
         N11       1.0000    0.63400   0.78700   0.24100   Biso      1.000     N          -0.190374           
         N12       1.0000    0.90370   0.54900   0.11400   Biso      1.000     N          -0.435161           
         N13       1.0000    0.78600   0.54400   0.68310   Biso      1.000     N          -0.467416           
         N14       1.0000    0.59630   0.04900   0.88600   Biso      1.000     N          -0.435158           
         N15       1.0000    0.71400   0.04400   0.31690   Biso      1.000     N          -0.46741  
         N16       1.0000    0.54020   0.34800   0.79030   Biso      1.000     N          -0.115482           
         N17       1.0000    0.45980   0.34800   0.20970   Biso      1.000     N          -0.115435           
         N18       1.0000    0.09630   0.54900   0.88600   Biso      1.000     N          -0.435159           
         N19       1.0000    0.24580   0.85300   0.28470   Biso      1.000     N          -0.074215           
         N20       1.0000    0.36600   0.78700   0.75900   Biso      1.000     N          -0.190282           
         N21       1.0000    0.95980   0.84800   0.20970   Biso      1.000     N          -0.115455           
         N22       1.0000    0.45590   0.78100   0.10040   Biso      1.000     N          -0.069933           
         N23       1.0000    0.74580   0.35300   0.28470   Biso      1.000     N          -0.07423  
         N24       1.0000    0.04020   0.84800   0.79030   Biso      1.000     N          -0.11547  
         O1        1.0000    0.23490   0.71600   0.74510   Biso      1.000     O          -0.213984           
         O2        1.0000    0.50180   0.70200   0.27820   Biso      1.000     O          -0.135203           
         O3        1.0000    0.12630   0.45300   0.74520   Biso      1.000     O          -0.22706  
         O4        1.0000    0.67390   0.16700   0.41260   Biso      1.000     O          -0.798297           
         O5        1.0000    0.67840   0.56500   0.36130   Biso      1.000     O          -0.760771           
         O6        1.0000    0.35450   0.66300   0.99210   Biso      1.000     O          -0.701739           
         O7        1.0000    0.50500   0.54200   0.42570   Biso      1.000     O          -0.169744           
         O8        1.0000    0.70350   0.58000   0.47440   Biso      1.000     O          -0.827265           
         O9        1.0000    0.25970   0.67400   0.97100   Biso      1.000     O          -0.820569           
         O10       1.0000    0.29710   0.28200   0.96240   Biso      1.000     O          -0.760161           
         O11       1.0000    0.73040   0.58600   0.12130   Biso      1.000     O          -0.260002           
         O12       1.0000    0.74030   0.67400   0.02900   Biso      1.000     O          -0.820562           
         O13       1.0000    0.29650   0.58000   0.52560   Biso      1.000     O          -0.827272           
         O14       1.0000    0.64550   0.66300   0.00790   Biso      1.000     O          -0.701737           
         O15       1.0000    0.79590   0.22600   0.40060   Biso      1.000     O          -0.467327           
         O16       1.0000    0.17840   0.06500   0.36130   Biso      1.000     O          -0.760772           
         O17       1.0000    0.20410   0.22600   0.59940   Biso      1.000     O          -0.467298           
         O18       1.0000    0.32160   0.56500   0.63870   Biso      1.000     O          -0.760782           
         O19       1.0000    0.70290   0.28200   0.03760   Biso      1.000     O          -0.760166           
         O20       1.0000    0.36600   0.31700   0.13850   Biso      1.000     O          -0.491627           
         O21       1.0000    0.32610   0.16700   0.58740   Biso      1.000     O          -0.798296           
         O22       1.0000    0.60790   0.49200   0.37920   Biso      1.000     O          -0.252814           
         O23       1.0000    0.79710   0.78200   0.96240   Biso      1.000     O          -0.760162           
         O24       1.0000    0.39210   0.49200   0.62080   Biso      1.000     O          -0.252791           
         O25       1.0000    0.26960   0.58600   0.87870   Biso      1.000     O          -0.259991           
         O26       1.0000    0.73490   0.21600   0.74510   Biso      1.000     O          -0.213992           
         O27       1.0000    0.82610   0.66700   0.58740   Biso      1.000     O          -0.798277           
         O28       1.0000    0.00180   0.20200   0.27820   Biso      1.000     O          -0.135161           
         O29       1.0000    0.62630   0.95300   0.74520   Biso      1.000     O          -0.227049           
         O30       1.0000    0.00500   0.04200   0.42570   Biso      1.000     O          -0.169768           
         O31       1.0000    0.76510   0.71600   0.25490   Biso      1.000     O          -0.213997           
         O32       1.0000    0.87370   0.45300   0.25480   Biso      1.000     O          -0.227093           
         O33       1.0000    0.49500   0.54200   0.57430   Biso      1.000     O          -0.169858           
         O34       1.0000    0.23040   0.08600   0.12130   Biso      1.000     O          -0.259994           
         O35       1.0000    0.89210   0.99200   0.62080   Biso      1.000     O          -0.252762           
         O36       1.0000    0.24030   0.17400   0.02900   Biso      1.000     O          -0.820567           
         O37       1.0000    0.79650   0.08000   0.52560   Biso      1.000     O          -0.827273           
         O38       1.0000    0.14550   0.16300   0.00790   Biso      1.000     O          -0.70173  
         O39       1.0000    0.82160   0.06500   0.63870   Biso      1.000     O          -0.760755           
         O40       1.0000    0.20290   0.78200   0.03760   Biso      1.000     O          -0.760168           
         O41       1.0000    0.29590   0.72600   0.40060   Biso      1.000     O          -0.467309           
         O42       1.0000    0.37370   0.95300   0.25480   Biso      1.000     O          -0.227096           
         O43       1.0000    0.70410   0.72600   0.59940   Biso      1.000     O          -0.467321           
         O44       1.0000    0.86600   0.81700   0.13850   Biso      1.000     O          -0.491642           
         O45       1.0000    0.76960   0.08600   0.87870   Biso      1.000     O          -0.259984           
         O46       1.0000    0.10790   0.99200   0.37920   Biso      1.000     O          -0.252802           
         O47       1.0000    0.75970   0.17400   0.97100   Biso      1.000     O          -0.820566           
         O48       1.0000    0.17390   0.66700   0.41260   Biso      1.000     O          -0.798284           
         O49       1.0000    0.20350   0.08000   0.47440   Biso      1.000     O          -0.827271           
         O50       1.0000    0.85450   0.16300   0.99210   Biso      1.000     O          -0.701743           
         O51       1.0000    0.26510   0.21600   0.25490   Biso      1.000     O          -0.213989           
         O52       1.0000    0.13400   0.81700   0.86150   Biso      1.000     O          -0.491654           
         O53       1.0000    0.63400   0.31700   0.86150   Biso      1.000     O          -0.491653           
         O54       1.0000    0.99820   0.20200   0.72180   Biso      1.000     O          -0.135143           
         O55       1.0000    0.99500   0.04200   0.57430   Biso      1.000     O          -0.169774           
         O56       1.0000    0.49820   0.70200   0.72180   Biso      1.000     O          -0.13518  
         P1        1.0000    0.16900   0.94000   0.40790   Biso      1.000     P          1.484654  
         P2        1.0000    0.83100   0.94000   0.59210   Biso      1.000     P          1.484643  
         P3        1.0000    0.33100   0.44000   0.59210   Biso      1.000     P          1.484672  
         P4        1.0000    0.20180   0.04200   0.04250   Biso      1.000     P          1.447277  
         P5        1.0000    0.66900   0.44000   0.40790   Biso      1.000     P          1.484646  
         P6        1.0000    0.79820   0.04200   0.95750   Biso      1.000     P          1.447267  
         P7        1.0000    0.70180   0.54200   0.04250   Biso      1.000     P          1.447281  
         P8        1.0000    0.29820   0.54200   0.95750   Biso      1.000     P          1.447284 