
##########################################################################
#               Crystallographic Information Format file
#               Produced by PyCifRW module
#
#  This is a CIF file.  CIF has been adopted by the International
#  Union of Crystallography as the standard for data archiving and
#  transmission.
#
#  For information on this file format, follow the CIF links at
#  http://www.iucr.org
##########################################################################

data_image0

_cell_length_a                          7.9539
_cell_length_b                          7.9539
_cell_length_c                          13.189
_cell_angle_alpha                       90
_cell_angle_beta                        90
_cell_angle_gamma                       90
_symmetry_space_group_name_H-M          'P 1'
_symmetry_int_tables_number             1
loop_
  _symmetry_equiv_pos_as_xyz
         'x, y, z' 
loop_
  _atom_site_label
  _atom_site_occupancy
  _atom_site_fract_x
  _atom_site_fract_y
  _atom_site_fract_z
  _atom_site_thermal_displace_type
  _atom_site_B_iso_or_equiv
  _atom_site_type_symbol
  _atom_site_charge
         C1        1.0000    0.57630   0.27010   0.05720   Biso      1.000     C          0.719168  
         C2        1.0000    0.14700   0.62360   0.93870   Biso      1.000     C          0.124719  
         C3        1.0000    0.18990   0.70740   0.04040   Biso      1.000     C          0.569857  
         C4        1.0000    0.81010   0.29260   0.54040   Biso      1.000     C          0.569856  
         C5        1.0000    0.51630   0.27180   0.16540   Biso      1.000     C          -0.428377           
         C6        1.0000    0.37640   0.14700   0.18870   Biso      1.000     C          0.124719  
         C7        1.0000    0.29260   0.18990   0.29040   Biso      1.000     C          0.569857  
         C8        1.0000    0.42370   0.72990   0.55720   Biso      1.000     C          0.719167  
         C9        1.0000    0.48370   0.72820   0.66540   Biso      1.000     C          -0.428376           
         C10       1.0000    0.62360   0.85300   0.68870   Biso      1.000     C          0.124719  
         C11       1.0000    0.70740   0.81010   0.79040   Biso      1.000     C          0.569857  
         C12       1.0000    0.27180   0.48370   0.91540   Biso      1.000     C          -0.428377           
         C13       1.0000    0.27010   0.42370   0.80720   Biso      1.000     C          0.719167  
         C14       1.0000    0.72990   0.57630   0.30720   Biso      1.000     C          0.719168  
         C15       1.0000    0.72820   0.51630   0.41540   Biso      1.000     C          -0.428377           
         C16       1.0000    0.85300   0.37640   0.43870   Biso      1.000     C          0.124719  
         H1        1.0000    0.15400   0.70840   0.88500   Biso      1.000     H          0.077863  
         H2        1.0000    0.61100   0.08450   0.65070   Biso      1.000     H          0.392346  
         H3        1.0000    0.70840   0.84600   0.63500   Biso      1.000     H          0.077864  
         H4        1.0000    0.38900   0.75220   0.70940   Biso      1.000     H          0.156794  
         H5        1.0000    0.52320   0.61600   0.68160   Biso      1.000     H          0.164144  
         H6        1.0000    0.91550   0.61100   0.90070   Biso      1.000     H          0.392347  
         H7        1.0000    0.38900   0.91550   0.15070   Biso      1.000     H          0.392346  
         H8        1.0000    0.61100   0.24780   0.20940   Biso      1.000     H          0.156794  
         H9        1.0000    0.61600   0.47680   0.43160   Biso      1.000     H          0.164144  
         H10       1.0000    0.75220   0.61100   0.45940   Biso      1.000     H          0.156794  
         H11       1.0000    0.84600   0.29160   0.38500   Biso      1.000     H          0.077863  
         H12       1.0000    0.08450   0.38900   0.40070   Biso      1.000     H          0.392347  
         H13       1.0000    0.47680   0.38400   0.18160   Biso      1.000     H          0.164144  
         H14       1.0000    0.24780   0.38900   0.95940   Biso      1.000     H          0.156794  
         H15       1.0000    0.29160   0.15400   0.13500   Biso      1.000     H          0.077863  
         H16       1.0000    0.38400   0.52320   0.93160   Biso      1.000     H          0.164144  
         Mn1       1.0000    0.53510   0.13538   0.84223   Biso      1.000     Mn          1.103794  
         Mn2       1.0000    0.13538   0.46490   0.59223   Biso      1.000     Mn          1.103795  
         Mn3       1.0000    0.86462   0.53510   0.09223   Biso      1.000     Mn          1.103793  
         Mn4       1.0000    0.46490   0.86462   0.34223   Biso      1.000     Mn          1.103795  
         O1        1.0000    0.62090   0.67840   0.27941   Biso      1.000     O          -0.619849           
         O2        1.0000    0.90430   0.31740   0.61432   Biso      1.000     O          -0.595862           
         O3        1.0000    0.68030   0.20810   0.54160   Biso      1.000     O          -0.561347           
         O4        1.0000    0.97960   0.55900   0.94164   Biso      1.000     O          -0.548948           
         O5        1.0000    0.16310   0.48370   0.74940   Biso      1.000     O          -0.554303           
         O6        1.0000    0.37910   0.32160   0.77941   Biso      1.000     O          -0.619847           
         O7        1.0000    0.09570   0.68260   0.11432   Biso      1.000     O          -0.595862           
         O8        1.0000    0.31970   0.79190   0.04160   Biso      1.000     O          -0.561348           
         O9        1.0000    0.44100   0.97960   0.19164   Biso      1.000     O          -0.548948           
         O10       1.0000    0.51630   0.16310   0.99940   Biso      1.000     O          -0.554303           
         O11       1.0000    0.67840   0.37910   0.02941   Biso      1.000     O          -0.619848           
         O12       1.0000    0.31740   0.09570   0.36432   Biso      1.000     O          -0.595863           
         O13       1.0000    0.20810   0.31970   0.29160   Biso      1.000     O          -0.561348           
         O14       1.0000    0.55900   0.02040   0.69164   Biso      1.000     O          -0.548948           
         O15       1.0000    0.48370   0.83690   0.49940   Biso      1.000     O          -0.554303           
         O16       1.0000    0.32160   0.62090   0.52941   Biso      1.000     O          -0.619848           
         O17       1.0000    0.68260   0.90430   0.86432   Biso      1.000     O          -0.595862           
         O18       1.0000    0.79190   0.68030   0.79160   Biso      1.000     O          -0.561347           
         O19       1.0000    0.83690   0.51630   0.24940   Biso      1.000     O          -0.554302           
         O20       1.0000    0.02040   0.44100   0.44164   Biso      1.000     O          -0.548948 