
##########################################################################
#               Crystallographic Information Format file
#               Produced by PyCifRW module
#
#  This is a CIF file.  CIF has been adopted by the International
#  Union of Crystallography as the standard for data archiving and
#  transmission.
#
#  For information on this file format, follow the CIF links at
#  http://www.iucr.org
##########################################################################

data_image0

_cell_length_a                          8.869
_cell_length_b                          12.07
_cell_length_c                          16.6
_cell_angle_alpha                       90
_cell_angle_beta                        90
_cell_angle_gamma                       109.341
_symmetry_space_group_name_H-M          'P 1'
_symmetry_int_tables_number             1
loop_
  _symmetry_equiv_pos_as_xyz
         'x, y, z' 
loop_
  _atom_site_label
  _atom_site_occupancy
  _atom_site_fract_x
  _atom_site_fract_y
  _atom_site_fract_z
  _atom_site_thermal_displace_type
  _atom_site_B_iso_or_equiv
  _atom_site_type_symbol
  _atom_site_charge
         C1        1.0000    0.09970   0.70380   0.20125   Biso      1.000     C          -0.17524  
         C2        1.0000    0.48690   0.00860   0.73826   Biso      1.000     C          -0.195363           
         C3        1.0000    0.37420   0.80110   0.57252   Biso      1.000     C          -0.165117           
         C4        1.0000    0.26350   0.89200   0.36659   Biso      1.000     C          -0.170896           
         C5        1.0000    0.51310   0.99140   0.26174   Biso      1.000     C          -0.195363           
         C6        1.0000    0.27520   0.83550   0.29600   Biso      1.000     C          0.244773  
         C7        1.0000    0.87860   0.99790   0.11405   Biso      1.000     C          -0.230575           
         C8        1.0000    0.22970   0.69390   0.55629   Biso      1.000     C          0.702423  
         C9        1.0000    0.00490   0.04710   0.16613   Biso      1.000     C          0.24414   
         C10       1.0000    0.22560   0.69330   0.98720   Biso      1.000     C          -0.17354  
         C11       1.0000    0.13060   0.10270   0.50940   Biso      1.000     C          0.234179  
         C12       1.0000    0.56120   0.39050   0.70373   Biso      1.000     C          0.692137  
         C13       1.0000    0.01310   0.99140   0.23826   Biso      1.000     C          -0.195361           
         C14       1.0000    0.73650   0.10800   0.63341   Biso      1.000     C          -0.170896           
         C15       1.0000    0.23650   0.10800   0.86659   Biso      1.000     C          -0.170897           
         C16       1.0000    0.49510   0.95290   0.66613   Biso      1.000     C          0.244139  
         C17       1.0000    0.12020   0.00260   0.55290   Biso      1.000     C          -0.177321           
         C18       1.0000    0.84110   0.63980   0.47648   Biso      1.000     C          0.66927   
         C19       1.0000    0.50870   0.09970   0.04370   Biso      1.000     C          -0.206332           
         C20       1.0000    0.89780   0.88480   0.25721   Biso      1.000     C          -0.188902           
         C21       1.0000    0.72480   0.16450   0.70400   Biso      1.000     C          0.244773  
         C22       1.0000    0.93880   0.60950   0.20373   Biso      1.000     C          0.692137  
         C23       1.0000    0.86940   0.89730   0.49060   Biso      1.000     C          0.234179  
         C24       1.0000    0.27440   0.30670   0.48720   Biso      1.000     C          -0.17354  
         C25       1.0000    0.06120   0.39050   0.79627   Biso      1.000     C          0.692137  
         C26       1.0000    0.77520   0.83550   0.20400   Biso      1.000     C          0.244775  
         C27       1.0000    0.49130   0.90030   0.95630   Biso      1.000     C          -0.206332           
         C28       1.0000    0.62020   0.00260   0.94710   Biso      1.000     C          -0.177318           
         C29       1.0000    0.99130   0.90030   0.54370   Biso      1.000     C          -0.206328           
         C30       1.0000    0.87420   0.80110   0.92748   Biso      1.000     C          -0.165117           
         C31       1.0000    0.43880   0.60950   0.29627   Biso      1.000     C          0.692137  
         C32       1.0000    0.39780   0.88480   0.24279   Biso      1.000     C          -0.188897           
         C33       1.0000    0.77030   0.30610   0.44371   Biso      1.000     C          0.702423  
         C34       1.0000    0.87980   0.99740   0.44710   Biso      1.000     C          -0.17732  
         C35       1.0000    0.15890   0.36020   0.52352   Biso      1.000     C          0.66927   
         C36       1.0000    0.10220   0.11520   0.74279   Biso      1.000     C          -0.188903           
         C37       1.0000    0.34110   0.63980   0.02352   Biso      1.000     C          0.66927   
         C38       1.0000    0.37860   0.99790   0.38595   Biso      1.000     C          -0.230573           
         C39       1.0000    0.12140   0.00210   0.88595   Biso      1.000     C          -0.230573           
         C40       1.0000    0.12580   0.19890   0.07252   Biso      1.000     C          -0.165117           
         C41       1.0000    0.72560   0.69330   0.51280   Biso      1.000     C          -0.17354  
         C42       1.0000    0.63060   0.10270   0.99060   Biso      1.000     C          0.234179  
         C43       1.0000    0.60220   0.11520   0.75721   Biso      1.000     C          -0.188897           
         C44       1.0000    0.62580   0.19890   0.42748   Biso      1.000     C          -0.165117           
         C45       1.0000    0.59970   0.70380   0.29875   Biso      1.000     C          -0.17524  
         C46       1.0000    0.76350   0.89200   0.13341   Biso      1.000     C          -0.170892           
         C47       1.0000    0.37980   0.99740   0.05290   Biso      1.000     C          -0.177317           
         C48       1.0000    0.36940   0.89730   0.00940   Biso      1.000     C          0.234179  
         C49       1.0000    0.90030   0.29620   0.79875   Biso      1.000     C          -0.175241           
         C50       1.0000    0.62140   0.00210   0.61405   Biso      1.000     C          -0.23057  
         C51       1.0000    0.77440   0.30670   0.01280   Biso      1.000     C          -0.17354  
         C52       1.0000    0.22480   0.16450   0.79600   Biso      1.000     C          0.244778  
         C53       1.0000    0.99510   0.95290   0.83387   Biso      1.000     C          0.24414   
         C54       1.0000    0.00870   0.09970   0.45630   Biso      1.000     C          -0.206328           
         C55       1.0000    0.72970   0.69390   0.94371   Biso      1.000     C          0.702423  
         C56       1.0000    0.40030   0.29620   0.70125   Biso      1.000     C          -0.17524  
         C57       1.0000    0.65890   0.36020   0.97648   Biso      1.000     C          0.66927   
         C58       1.0000    0.27030   0.30610   0.05629   Biso      1.000     C          0.702423  
         C59       1.0000    0.50490   0.04710   0.33387   Biso      1.000     C          0.244141  
         C60       1.0000    0.98690   0.00860   0.76174   Biso      1.000     C          -0.19536  
         Gd1       1.0000    0.43300   0.45267   0.88213   Biso      1.000     Gd          2.068724  
         Gd2       1.0000    0.06700   0.54733   0.38213   Biso      1.000     Gd          2.068724  
         Gd3       1.0000    0.56700   0.54733   0.11787   Biso      1.000     Gd          2.068724  
         Gd4       1.0000    0.93300   0.45267   0.61787   Biso      1.000     Gd          2.068724  
         H1        1.0000    0.38210   0.36130   0.49330   Biso      1.000     H          0.14729   
         H2        1.0000    0.09650   0.15290   0.69460   Biso      1.000     H          0.137341  
         H3        1.0000    0.09040   0.77490   0.17780   Biso      1.000     H          0.126956  
         H4        1.0000    0.90390   0.97440   0.72590   Biso      1.000     H          0.130103  
         H5        1.0000    0.87110   0.03580   0.06620   Biso      1.000     H          0.116169  
         H6        1.0000    0.79890   0.99600   0.41110   Biso      1.000     H          0.129329  
         H7        1.0000    0.70110   0.00400   0.91110   Biso      1.000     H          0.129329  
         H8        1.0000    0.12230   0.13910   0.03290   Biso      1.000     H          0.111887  
         H9        1.0000    0.40390   0.97440   0.77410   Biso      1.000     H          0.130103  
         H10       1.0000    0.48660   0.83370   0.92680   Biso      1.000     H          0.127715  
         H11       1.0000    0.02990   0.21990   0.06610   Biso      1.000     H          0.117288  
         H12       1.0000    0.32190   0.14100   0.90130   Biso      1.000     H          0.127814  
         H13       1.0000    0.01340   0.16630   0.42680   Biso      1.000     H          0.127715  
         H14       1.0000    0.74730   0.70490   0.57010   Biso      1.000     H          0.118506  
         H15       1.0000    0.62890   0.96420   0.56620   Biso      1.000     H          0.116169  
         H16       1.0000    0.47010   0.78010   0.56610   Biso      1.000     H          0.117288  
         H17       1.0000    0.11790   0.63870   0.99330   Biso      1.000     H          0.14729   
         H18       1.0000    0.37770   0.86090   0.53290   Biso      1.000     H          0.111887  
         H19       1.0000    0.37110   0.03580   0.43380   Biso      1.000     H          0.116169  
         H20       1.0000    0.52990   0.21990   0.43390   Biso      1.000     H          0.117288  
         H21       1.0000    0.90960   0.22510   0.82220   Biso      1.000     H          0.126956  
         H22       1.0000    0.40960   0.22510   0.67780   Biso      1.000     H          0.126956  
         H23       1.0000    0.67290   0.67860   0.33140   Biso      1.000     H          0.130835  
         H24       1.0000    0.75270   0.29510   0.07010   Biso      1.000     H          0.118506  
         H25       1.0000    0.17810   0.85900   0.40130   Biso      1.000     H          0.127814  
         H26       1.0000    0.87770   0.86090   0.96710   Biso      1.000     H          0.111887  
         H27       1.0000    0.82710   0.32140   0.83140   Biso      1.000     H          0.130835  
         H28       1.0000    0.59610   0.02560   0.22590   Biso      1.000     H          0.130103  
         H29       1.0000    0.25270   0.29510   0.42990   Biso      1.000     H          0.118506  
         H30       1.0000    0.97010   0.78010   0.93390   Biso      1.000     H          0.117288  
         H31       1.0000    0.62230   0.13910   0.46710   Biso      1.000     H          0.111887  
         H32       1.0000    0.59040   0.77490   0.32220   Biso      1.000     H          0.126956  
         H33       1.0000    0.12890   0.96420   0.93380   Biso      1.000     H          0.116169  
         H34       1.0000    0.09610   0.02560   0.27410   Biso      1.000     H          0.130103  
         H35       1.0000    0.32710   0.32140   0.66860   Biso      1.000     H          0.130835  
         H36       1.0000    0.98660   0.83370   0.57320   Biso      1.000     H          0.127715  
         H37       1.0000    0.59650   0.15290   0.80540   Biso      1.000     H          0.137341  
         H38       1.0000    0.40350   0.84710   0.19460   Biso      1.000     H          0.137341  
         H39       1.0000    0.17290   0.67860   0.16860   Biso      1.000     H          0.130835  
         H40       1.0000    0.82190   0.14100   0.59870   Biso      1.000     H          0.127814  
         H41       1.0000    0.24730   0.70490   0.92990   Biso      1.000     H          0.118506  
         H42       1.0000    0.29890   0.99600   0.08890   Biso      1.000     H          0.129329  
         H43       1.0000    0.61790   0.63870   0.50670   Biso      1.000     H          0.14729   
         H44       1.0000    0.67810   0.85900   0.09870   Biso      1.000     H          0.127814  
         H45       1.0000    0.90350   0.84710   0.30540   Biso      1.000     H          0.137341  
         H46       1.0000    0.51340   0.16630   0.07320   Biso      1.000     H          0.127716  
         H47       1.0000    0.88210   0.36130   0.00670   Biso      1.000     H          0.14729   
         H48       1.0000    0.20110   0.00400   0.58890   Biso      1.000     H          0.129329  
         O1        1.0000    0.26650   0.19770   0.52227   Biso      1.000     O          -0.191825           
         O2        1.0000    0.65950   0.62970   0.88634   Biso      1.000     O          -0.659504           
         O3        1.0000    0.87360   0.84828   0.84935   Biso      1.000     O          -0.191805           
         O4        1.0000    0.76650   0.19770   0.97773   Biso      1.000     O          -0.191825           
         O5        1.0000    0.14980   0.39939   0.85584   Biso      1.000     O          -0.670447           
         O6        1.0000    0.09970   0.32850   0.59079   Biso      1.000     O          -0.599451           
         O7        1.0000    0.90030   0.67150   0.40921   Biso      1.000     O          -0.599451           
         O8        1.0000    0.40510   0.54477   0.23494   Biso      1.000     O          -0.67529  
         O9        1.0000    0.85020   0.60061   0.14416   Biso      1.000     O          -0.670447           
         O10       1.0000    0.19700   0.67966   0.48297   Biso      1.000     O          -0.657902           
         O11       1.0000    0.59970   0.32850   0.90921   Biso      1.000     O          -0.599451           
         O12       1.0000    0.90510   0.54477   0.26506   Biso      1.000     O          -0.67529  
         O13       1.0000    0.15830   0.72594   0.28260   Biso      1.000     O          -0.292873           
         O14       1.0000    0.86850   0.55800   0.51378   Biso      1.000     O          -0.75451  
         O15       1.0000    0.63150   0.44200   0.01378   Biso      1.000     O          -0.75451  
         O16       1.0000    0.30300   0.32034   0.98297   Biso      1.000     O          -0.657903           
         O17       1.0000    0.34170   0.27406   0.78260   Biso      1.000     O          -0.292873           
         O18       1.0000    0.12640   0.15172   0.15065   Biso      1.000     O          -0.191805           
         O19       1.0000    0.73350   0.80230   0.47773   Biso      1.000     O          -0.191825           
         O20       1.0000    0.40030   0.67150   0.09079   Biso      1.000     O          -0.599451           
         O21       1.0000    0.64980   0.39939   0.64416   Biso      1.000     O          -0.670447           
         O22       1.0000    0.69700   0.67966   0.01703   Biso      1.000     O          -0.657903           
         O23       1.0000    0.65830   0.72594   0.21740   Biso      1.000     O          -0.292873           
         O24       1.0000    0.84050   0.37030   0.38634   Biso      1.000     O          -0.659504           
         O25       1.0000    0.13150   0.44200   0.48622   Biso      1.000     O          -0.75451  
         O26       1.0000    0.37360   0.84828   0.65065   Biso      1.000     O          -0.191805           
         O27       1.0000    0.15950   0.62970   0.61366   Biso      1.000     O          -0.659504           
         O28       1.0000    0.36850   0.55800   0.98622   Biso      1.000     O          -0.75451  
         O29       1.0000    0.34050   0.37030   0.11366   Biso      1.000     O          -0.659504           
         O30       1.0000    0.59490   0.45523   0.76506   Biso      1.000     O          -0.67529  
         O31       1.0000    0.35020   0.60061   0.35584   Biso      1.000     O          -0.670447           
         O32       1.0000    0.09490   0.45523   0.73494   Biso      1.000     O          -0.67529  
         O33       1.0000    0.23350   0.80230   0.02227   Biso      1.000     O          -0.191825           
         O34       1.0000    0.62640   0.15172   0.34935   Biso      1.000     O          -0.191806           
         O35       1.0000    0.84170   0.27406   0.71740   Biso      1.000     O          -0.292872           
         O36       1.0000    0.80300   0.32034   0.51703   Biso      1.000     O          -0.657903 