
##########################################################################
#               Crystallographic Information Format file
#               Produced by PyCifRW module
#
#  This is a CIF file.  CIF has been adopted by the International
#  Union of Crystallography as the standard for data archiving and
#  transmission.
#
#  For information on this file format, follow the CIF links at
#  http://www.iucr.org
##########################################################################

data_image0

_cell_length_a                          8.9174
_cell_length_b                          12.1121
_cell_length_c                          16.6262
_cell_angle_alpha                       90
_cell_angle_beta                        90
_cell_angle_gamma                       109.361
_symmetry_space_group_name_H-M          'P 1'
_symmetry_int_tables_number             1
loop_
  _symmetry_equiv_pos_as_xyz
         'x, y, z' 
loop_
  _atom_site_label
  _atom_site_occupancy
  _atom_site_fract_x
  _atom_site_fract_y
  _atom_site_fract_z
  _atom_site_thermal_displace_type
  _atom_site_B_iso_or_equiv
  _atom_site_type_symbol
  _atom_site_charge
         C1        1.0000    0.06090   0.39050   0.20308   Biso      1.000     C          0.693237  
         C2        1.0000    0.50400   0.04580   0.66716   Biso      1.000     C          0.244848  
         C3        1.0000    0.27440   0.83510   0.70505   Biso      1.000     C          0.24205300000000002           
         C4        1.0000    0.76280   0.89100   0.86555   Biso      1.000     C          -0.171914           
         C5        1.0000    0.59820   0.70460   0.70040   Biso      1.000     C          -0.16999  
         C6        1.0000    0.50620   0.09860   0.95615   Biso      1.000     C          -0.204533           
         C7        1.0000    0.39710   0.88440   0.75833   Biso      1.000     C          -0.187879           
         C8        1.0000    0.60290   0.11560   0.24167   Biso      1.000     C          -0.18788  
         C9        1.0000    0.72560   0.16490   0.29495   Biso      1.000     C          0.242054  
         C10       1.0000    0.99600   0.95420   0.16716   Biso      1.000     C          0.244848  
         C11       1.0000    0.62200   0.00310   0.38520   Biso      1.000     C          -0.230567           
         C12       1.0000    0.90180   0.29540   0.20040   Biso      1.000     C          -0.16999  
         C13       1.0000    0.98800   0.00890   0.23910   Biso      1.000     C          -0.194684           
         C14       1.0000    0.73000   0.69370   0.48520   Biso      1.000     C          -0.17381300000000002          
         C15       1.0000    0.27000   0.30630   0.51480   Biso      1.000     C          -0.17381300000000002          
         C16       1.0000    0.36960   0.89730   0.99216   Biso      1.000     C          0.231742  
         C17       1.0000    0.77440   0.83510   0.79495   Biso      1.000     C          0.242056  
         C18       1.0000    0.37550   0.80290   0.42652   Biso      1.000     C          -0.16355699999999998          
         C19       1.0000    0.87550   0.80290   0.07348   Biso      1.000     C          -0.16355699999999998          
         C20       1.0000    0.48800   0.00890   0.26090   Biso      1.000     C          -0.194686           
         C21       1.0000    0.40180   0.29540   0.29960   Biso      1.000     C          -0.16999  
         C22       1.0000    0.73100   0.69630   0.05725   Biso      1.000     C          0.704655  
         C23       1.0000    0.37770   0.99680   0.94852   Biso      1.000     C          -0.175574           
         C24       1.0000    0.09820   0.70460   0.79960   Biso      1.000     C          -0.16999  
         C25       1.0000    0.87770   0.99680   0.55148   Biso      1.000     C          -0.175577           
         C26       1.0000    0.62230   0.00320   0.05148   Biso      1.000     C          -0.175577           
         C27       1.0000    0.49380   0.90140   0.04385   Biso      1.000     C          -0.204532           
         C28       1.0000    0.00620   0.09860   0.54385   Biso      1.000     C          -0.204533           
         C29       1.0000    0.89710   0.88440   0.74167   Biso      1.000     C          -0.187879           
         C30       1.0000    0.93910   0.60950   0.79692   Biso      1.000     C          0.693237  
         C31       1.0000    0.49600   0.95420   0.33284   Biso      1.000     C          0.24485   
         C32       1.0000    0.12200   0.00310   0.11480   Biso      1.000     C          -0.230567           
         C33       1.0000    0.00400   0.04580   0.83284   Biso      1.000     C          0.244848  
         C34       1.0000    0.26900   0.30370   0.94275   Biso      1.000     C          0.704655  
         C35       1.0000    0.51200   0.99110   0.73910   Biso      1.000     C          -0.194684           
         C36       1.0000    0.22560   0.16490   0.20505   Biso      1.000     C          0.24205300000000002           
         C37       1.0000    0.23000   0.69370   0.01480   Biso      1.000     C          -0.17381300000000002          
         C38       1.0000    0.12230   0.00320   0.44852   Biso      1.000     C          -0.175577           
         C39       1.0000    0.10290   0.11560   0.25833   Biso      1.000     C          -0.187879           
         C40       1.0000    0.63040   0.10270   0.00784   Biso      1.000     C          0.231744  
         C41       1.0000    0.26280   0.89100   0.63445   Biso      1.000     C          -0.17191099999999998          
         C42       1.0000    0.01200   0.99110   0.76090   Biso      1.000     C          -0.194684           
         C43       1.0000    0.73720   0.10900   0.36555   Biso      1.000     C          -0.17190899999999998          
         C44       1.0000    0.99380   0.90140   0.45615   Biso      1.000     C          -0.204533           
         C45       1.0000    0.43910   0.60950   0.70308   Biso      1.000     C          0.693237  
         C46       1.0000    0.62450   0.19710   0.57348   Biso      1.000     C          -0.16355699999999998          
         C47       1.0000    0.37800   0.99690   0.61480   Biso      1.000     C          -0.23056500000000002          
         C48       1.0000    0.34270   0.64150   0.97546   Biso      1.000     C          0.66473   
         C49       1.0000    0.15730   0.35850   0.47546   Biso      1.000     C          0.66473   
         C50       1.0000    0.87800   0.99690   0.88520   Biso      1.000     C          -0.23056500000000002          
         C51       1.0000    0.13040   0.10270   0.49216   Biso      1.000     C          0.231744  
         C52       1.0000    0.77000   0.30630   0.98520   Biso      1.000     C          -0.17381300000000002          
         C53       1.0000    0.84270   0.64150   0.52454   Biso      1.000     C          0.66473   
         C54       1.0000    0.23720   0.10900   0.13445   Biso      1.000     C          -0.17190899999999998          
         C55       1.0000    0.76900   0.30370   0.55725   Biso      1.000     C          0.704655  
         C56       1.0000    0.86960   0.89730   0.50784   Biso      1.000     C          0.231744  
         C57       1.0000    0.12450   0.19710   0.92652   Biso      1.000     C          -0.16355699999999998          
         C58       1.0000    0.23100   0.69630   0.44275   Biso      1.000     C          0.704655  
         C59       1.0000    0.65730   0.35850   0.02454   Biso      1.000     C          0.66473   
         C60       1.0000    0.56090   0.39050   0.29692   Biso      1.000     C          0.693237  
         H1        1.0000    0.79540   0.99500   0.58640   Biso      1.000     H          0.12975899999999999           
         H2        1.0000    0.12280   0.63860   0.01040   Biso      1.000     H          0.14893699999999999           
         H3        1.0000    0.24430   0.29510   0.57160   Biso      1.000     H          0.11993399999999999           
         H4        1.0000    0.37970   0.86260   0.46610   Biso      1.000     H          0.111326  
         H5        1.0000    0.00950   0.16460   0.57340   Biso      1.000     H          0.125801  
         H6        1.0000    0.87970   0.86260   0.03390   Biso      1.000     H          0.111327  
         H7        1.0000    0.62030   0.13740   0.53390   Biso      1.000     H          0.111327  
         H8        1.0000    0.82900   0.31940   0.16690   Biso      1.000     H          0.130375  
         H9        1.0000    0.50950   0.16460   0.92660   Biso      1.000     H          0.125801  
         H10       1.0000    0.62920   0.96520   0.43300   Biso      1.000     H          0.116092  
         H11       1.0000    0.90320   0.84690   0.69360   Biso      1.000     H          0.137711  
         H12       1.0000    0.29540   0.99500   0.91360   Biso      1.000     H          0.12975899999999999           
         H13       1.0000    0.49050   0.83540   0.07340   Biso      1.000     H          0.125801  
         H14       1.0000    0.62280   0.63860   0.48960   Biso      1.000     H          0.14893699999999999           
         H15       1.0000    0.70460   0.00500   0.08640   Biso      1.000     H          0.12975899999999999           
         H16       1.0000    0.37080   0.03480   0.56700   Biso      1.000     H          0.116092  
         H17       1.0000    0.41270   0.22460   0.32220   Biso      1.000     H          0.12665   
         H18       1.0000    0.97060   0.78150   0.06730   Biso      1.000     H          0.117273  
         H19       1.0000    0.99050   0.83540   0.42660   Biso      1.000     H          0.125801  
         H20       1.0000    0.59680   0.15310   0.19360   Biso      1.000     H          0.137711  
         H21       1.0000    0.90570   0.97430   0.27490   Biso      1.000     H          0.130273  
         H22       1.0000    0.52940   0.21850   0.56730   Biso      1.000     H          0.117273  
         H23       1.0000    0.67100   0.68060   0.66690   Biso      1.000     H          0.130375  
         H24       1.0000    0.12030   0.13740   0.96610   Biso      1.000     H          0.111326  
         H25       1.0000    0.32220   0.14210   0.09980   Biso      1.000     H          0.128377  
         H26       1.0000    0.02940   0.21850   0.93270   Biso      1.000     H          0.117273  
         H27       1.0000    0.59430   0.02570   0.77490   Biso      1.000     H          0.130273  
         H28       1.0000    0.91270   0.22460   0.17780   Biso      1.000     H          0.12665   
         H29       1.0000    0.37720   0.36140   0.51040   Biso      1.000     H          0.14893800000000001           
         H30       1.0000    0.12920   0.96520   0.06700   Biso      1.000     H          0.116092  
         H31       1.0000    0.82220   0.14210   0.40020   Biso      1.000     H          0.128377  
         H32       1.0000    0.47060   0.78150   0.43270   Biso      1.000     H          0.117273  
         H33       1.0000    0.09430   0.02570   0.72510   Biso      1.000     H          0.130273  
         H34       1.0000    0.87720   0.36140   0.98960   Biso      1.000     H          0.14893800000000001           
         H35       1.0000    0.74430   0.29510   0.92840   Biso      1.000     H          0.11993399999999999           
         H36       1.0000    0.20460   0.00500   0.41360   Biso      1.000     H          0.12975899999999999           
         H37       1.0000    0.75570   0.70490   0.42840   Biso      1.000     H          0.11993399999999999           
         H38       1.0000    0.40570   0.97430   0.22510   Biso      1.000     H          0.130273  
         H39       1.0000    0.58730   0.77540   0.67780   Biso      1.000     H          0.12665   
         H40       1.0000    0.67780   0.85790   0.90020   Biso      1.000     H          0.128377  
         H41       1.0000    0.09680   0.15310   0.30640   Biso      1.000     H          0.137711  
         H42       1.0000    0.87080   0.03480   0.93300   Biso      1.000     H          0.116092  
         H43       1.0000    0.25570   0.70490   0.07160   Biso      1.000     H          0.11993399999999999           
         H44       1.0000    0.32900   0.31940   0.33310   Biso      1.000     H          0.130375  
         H45       1.0000    0.08730   0.77540   0.82220   Biso      1.000     H          0.12665   
         H46       1.0000    0.40320   0.84690   0.80640   Biso      1.000     H          0.137711  
         H47       1.0000    0.17780   0.85790   0.59980   Biso      1.000     H          0.128377  
         H48       1.0000    0.17100   0.68060   0.83310   Biso      1.000     H          0.130375  
         O1        1.0000    0.59860   0.32355   0.09159   Biso      1.000     O          -0.597295           
         O2        1.0000    0.15860   0.72612   0.71865   Biso      1.000     O          -0.296773           
         O3        1.0000    0.83960   0.36717   0.61448   Biso      1.000     O          -0.666354           
         O4        1.0000    0.23360   0.80254   0.98110   Biso      1.000     O          -0.19142  
         O5        1.0000    0.62980   0.44233   0.98956   Biso      1.000     O          -0.76444  
         O6        1.0000    0.73360   0.80254   0.51890   Biso      1.000     O          -0.19142  
         O7        1.0000    0.64870   0.39998   0.35696   Biso      1.000     O          -0.679108           
         O8        1.0000    0.80150   0.31840   0.48395   Biso      1.000     O          -0.665691           
         O9        1.0000    0.85130   0.60002   0.85696   Biso      1.000     O          -0.679108           
         O10       1.0000    0.40140   0.67645   0.90841   Biso      1.000     O          -0.597295           
         O11       1.0000    0.14870   0.39998   0.14304   Biso      1.000     O          -0.679108           
         O12       1.0000    0.69850   0.68160   0.98395   Biso      1.000     O          -0.665691           
         O13       1.0000    0.16040   0.63283   0.38552   Biso      1.000     O          -0.666354           
         O14       1.0000    0.90140   0.67645   0.59159   Biso      1.000     O          -0.597295           
         O15       1.0000    0.40550   0.54506   0.76416   Biso      1.000     O          -0.6812630000000001           
         O16       1.0000    0.65860   0.72612   0.78135   Biso      1.000     O          -0.296773           
         O17       1.0000    0.12540   0.15027   0.84858   Biso      1.000     O          -0.193928           
         O18       1.0000    0.87460   0.84973   0.15142   Biso      1.000     O          -0.193928           
         O19       1.0000    0.09450   0.45494   0.26416   Biso      1.000     O          -0.6812630000000001           
         O20       1.0000    0.90550   0.54506   0.73584   Biso      1.000     O          -0.6812630000000001           
         O21       1.0000    0.12980   0.44233   0.51044   Biso      1.000     O          -0.764439           
         O22       1.0000    0.87020   0.55767   0.48956   Biso      1.000     O          -0.76444  
         O23       1.0000    0.35130   0.60002   0.64304   Biso      1.000     O          -0.679108           
         O24       1.0000    0.33960   0.36717   0.88552   Biso      1.000     O          -0.666355           
         O25       1.0000    0.37460   0.84973   0.34858   Biso      1.000     O          -0.193928           
         O26       1.0000    0.30150   0.31840   0.01605   Biso      1.000     O          -0.665691           
         O27       1.0000    0.84140   0.27388   0.28135   Biso      1.000     O          -0.296773           
         O28       1.0000    0.59450   0.45494   0.23584   Biso      1.000     O          -0.6812630000000001           
         O29       1.0000    0.66040   0.63283   0.11448   Biso      1.000     O          -0.666355           
         O30       1.0000    0.26640   0.19746   0.48110   Biso      1.000     O          -0.19142  
         O31       1.0000    0.37020   0.55767   0.01044   Biso      1.000     O          -0.76444  
         O32       1.0000    0.19850   0.68160   0.51605   Biso      1.000     O          -0.665691           
         O33       1.0000    0.62540   0.15027   0.65142   Biso      1.000     O          -0.193928           
         O34       1.0000    0.34140   0.27388   0.21865   Biso      1.000     O          -0.296773           
         O35       1.0000    0.09860   0.32355   0.40841   Biso      1.000     O          -0.597295           
         O36       1.0000    0.76640   0.19746   0.01890   Biso      1.000     O          -0.19142  
         Sm1       1.0000    0.93358   0.45228   0.38275   Biso      1.000     Sm          2.105006  
         Sm2       1.0000    0.56642   0.54772   0.88275   Biso      1.000     Sm          2.105006  
         Sm3       1.0000    0.06642   0.54772   0.61725   Biso      1.000     Sm          2.105006  
         Sm4       1.0000    0.43358   0.45228   0.11725   Biso      1.000     Sm          2.105006 