
##########################################################################
#               Crystallographic Information Format file
#               Produced by PyCifRW module
#
#  This is a CIF file.  CIF has been adopted by the International
#  Union of Crystallography as the standard for data archiving and
#  transmission.
#
#  For information on this file format, follow the CIF links at
#  http://www.iucr.org
##########################################################################

data_image0

_cell_length_a                          8.9322
_cell_length_b                          12.1598
_cell_length_c                          16.8436
_cell_angle_alpha                       90
_cell_angle_beta                        90
_cell_angle_gamma                       109.04
_symmetry_space_group_name_H-M          'P 1'
_symmetry_int_tables_number             1
loop_
  _symmetry_equiv_pos_as_xyz
         'x, y, z' 
loop_
  _atom_site_label
  _atom_site_occupancy
  _atom_site_fract_x
  _atom_site_fract_y
  _atom_site_fract_z
  _atom_site_thermal_displace_type
  _atom_site_B_iso_or_equiv
  _atom_site_type_symbol
  _atom_site_charge
         C1        1.0000    0.01130   0.49170   0.75971   Biso      1.000     C          -0.191081           
         C2        1.0000    0.27680   0.33610   0.70667   Biso      1.000     C          0.239783  
         C3        1.0000    0.22320   0.66390   0.20667   Biso      1.000     C          0.239783  
         C4        1.0000    0.00500   0.54520   0.83169   Biso      1.000     C          0.243768  
         C5        1.0000    0.26810   0.80050   0.94017   Biso      1.000     C          0.694586  
         C6        1.0000    0.86900   0.39890   0.50705   Biso      1.000     C          0.233375  
         C7        1.0000    0.98870   0.50830   0.24029   Biso      1.000     C          -0.191081           
         C8        1.0000    0.88090   0.49460   0.88352   Biso      1.000     C          -0.228251           
         C9        1.0000    0.76810   0.80050   0.55983   Biso      1.000     C          0.694586  
         C10       1.0000    0.73190   0.19950   0.05983   Biso      1.000     C          0.694586  
         C11       1.0000    0.65690   0.85420   0.02643   Biso      1.000     C          0.653606  
         C12       1.0000    0.77010   0.80340   0.98590   Biso      1.000     C          -0.175394           
         C13       1.0000    0.60350   0.61310   0.24019   Biso      1.000     C          -0.191287           
         C14       1.0000    0.15690   0.85420   0.47357   Biso      1.000     C          0.653606  
         C15       1.0000    0.23320   0.60980   0.13581   Biso      1.000     C          -0.174984           
         C16       1.0000    0.73320   0.60980   0.36419   Biso      1.000     C          -0.174986           
         C17       1.0000    0.89650   0.38690   0.74019   Biso      1.000     C          -0.191287           
         C18       1.0000    0.38090   0.49460   0.61648   Biso      1.000     C          -0.228253           
         C19       1.0000    0.99320   0.40230   0.45637   Biso      1.000     C          -0.205941           
         C20       1.0000    0.60040   0.20730   0.69983   Biso      1.000     C          -0.172134           
         C21       1.0000    0.11910   0.50540   0.11648   Biso      1.000     C          -0.22825  
         C22       1.0000    0.27010   0.80340   0.51410   Biso      1.000     C          -0.175394           
         C23       1.0000    0.26680   0.39020   0.63581   Biso      1.000     C          -0.174981           
         C24       1.0000    0.49500   0.45480   0.33169   Biso      1.000     C          0.243767  
         C25       1.0000    0.39650   0.38690   0.75981   Biso      1.000     C          -0.191283           
         C26       1.0000    0.10350   0.61310   0.25981   Biso      1.000     C          -0.191283           
         C27       1.0000    0.87860   0.49810   0.55063   Biso      1.000     C          -0.176641           
         C28       1.0000    0.12440   0.69520   0.92431   Biso      1.000     C          -0.165132           
         C29       1.0000    0.51130   0.49170   0.74029   Biso      1.000     C          -0.191081           
         C30       1.0000    0.48870   0.50830   0.25971   Biso      1.000     C          -0.19108  
         C31       1.0000    0.89960   0.79270   0.19983   Biso      1.000     C          -0.172134           
         C32       1.0000    0.61910   0.50540   0.38352   Biso      1.000     C          -0.228248           
         C33       1.0000    0.22990   0.19660   0.01410   Biso      1.000     C          -0.175394           
         C34       1.0000    0.37560   0.30480   0.42431   Biso      1.000     C          -0.165132           
         C35       1.0000    0.99500   0.45480   0.16831   Biso      1.000     C          0.243769  
         C36       1.0000    0.49320   0.40230   0.04363   Biso      1.000     C          -0.205942           
         C37       1.0000    0.50500   0.54520   0.66831   Biso      1.000     C          0.243769  
         C38       1.0000    0.76680   0.39020   0.86419   Biso      1.000     C          -0.174983           
         C39       1.0000    0.34310   0.14580   0.97357   Biso      1.000     C          0.653606  
         C40       1.0000    0.87560   0.30480   0.07569   Biso      1.000     C          -0.165132           
         C41       1.0000    0.39960   0.79270   0.30017   Biso      1.000     C          -0.172134           
         C42       1.0000    0.36900   0.39890   0.99295   Biso      1.000     C          0.233377  
         C43       1.0000    0.00680   0.59770   0.54363   Biso      1.000     C          -0.205942           
         C44       1.0000    0.23190   0.19950   0.44017   Biso      1.000     C          0.694586  
         C45       1.0000    0.44370   0.11150   0.70170   Biso      1.000     C          0.685062  
         C46       1.0000    0.62140   0.50190   0.05063   Biso      1.000     C          -0.176641           
         C47       1.0000    0.12140   0.50190   0.44937   Biso      1.000     C          -0.176641           
         C48       1.0000    0.63100   0.60110   0.00705   Biso      1.000     C          0.233375  
         C49       1.0000    0.37860   0.49810   0.94937   Biso      1.000     C          -0.176641           
         C50       1.0000    0.05630   0.88850   0.20170   Biso      1.000     C          0.685062  
         C51       1.0000    0.55630   0.88850   0.29830   Biso      1.000     C          0.685062  
         C52       1.0000    0.13100   0.60110   0.49295   Biso      1.000     C          0.233377  
         C53       1.0000    0.10040   0.20730   0.80017   Biso      1.000     C          -0.172134           
         C54       1.0000    0.50680   0.59770   0.95637   Biso      1.000     C          -0.20594  
         C55       1.0000    0.62440   0.69520   0.57569   Biso      1.000     C          -0.165132           
         C56       1.0000    0.84310   0.14580   0.52643   Biso      1.000     C          0.653606  
         C57       1.0000    0.72320   0.66390   0.29333   Biso      1.000     C          0.239788  
         C58       1.0000    0.72990   0.19660   0.48590   Biso      1.000     C          -0.175394           
         C59       1.0000    0.77680   0.33610   0.79333   Biso      1.000     C          0.239787  
         C60       1.0000    0.94370   0.11150   0.79830   Biso      1.000     C          0.685062  
         Ce1       1.0000    0.56909   0.04839   0.88353   Biso      1.000     Ce          2.077924  
         Ce2       1.0000    0.43091   0.95161   0.11647   Biso      1.000     Ce          2.077924  
         Ce3       1.0000    0.06909   0.04839   0.61647   Biso      1.000     Ce          2.077924  
         Ce4       1.0000    0.93091   0.95161   0.38353   Biso      1.000     Ce          2.077924  
         H1        1.0000    0.18340   0.35650   0.60110   Biso      1.000     H          0.12769   
         H2        1.0000    0.40050   0.35150   0.80830   Biso      1.000     H          0.137564  
         H3        1.0000    0.31660   0.64350   0.10110   Biso      1.000     H          0.12769   
         H4        1.0000    0.02970   0.71690   0.93020   Biso      1.000     H          0.119274  
         H5        1.0000    0.12550   0.46910   0.06860   Biso      1.000     H          0.115857  
         H6        1.0000    0.75610   0.20630   0.42980   Biso      1.000     H          0.118329  
         H7        1.0000    0.91280   0.72230   0.17840   Biso      1.000     H          0.12791   
         H8        1.0000    0.52970   0.71690   0.56980   Biso      1.000     H          0.119274  
         H9        1.0000    0.12000   0.63590   0.96360   Biso      1.000     H          0.111042  
         H10       1.0000    0.20320   0.50310   0.41490   Biso      1.000     H          0.130098  
         H11       1.0000    0.79680   0.49690   0.58510   Biso      1.000     H          0.130098  
         H12       1.0000    0.98960   0.33680   0.42700   Biso      1.000     H          0.1256    
         H13       1.0000    0.24390   0.79370   0.57020   Biso      1.000     H          0.118329  
         H14       1.0000    0.88000   0.36410   0.03640   Biso      1.000     H          0.111042  
         H15       1.0000    0.09950   0.64850   0.30830   Biso      1.000     H          0.137564  
         H16       1.0000    0.58720   0.27770   0.67840   Biso      1.000     H          0.12791   
         H17       1.0000    0.67400   0.18520   0.66620   Biso      1.000     H          0.13101   
         H18       1.0000    0.29680   0.49690   0.91490   Biso      1.000     H          0.130098  
         H19       1.0000    0.09300   0.52610   0.72420   Biso      1.000     H          0.128909  
         H20       1.0000    0.08720   0.27770   0.82160   Biso      1.000     H          0.12791   
         H21       1.0000    0.32600   0.81480   0.33380   Biso      1.000     H          0.13101   
         H22       1.0000    0.17400   0.18520   0.83380   Biso      1.000     H          0.13101   
         H23       1.0000    0.74390   0.79370   0.92980   Biso      1.000     H          0.118329  
         H24       1.0000    0.47030   0.28310   0.43020   Biso      1.000     H          0.119274  
         H25       1.0000    0.41280   0.72230   0.32160   Biso      1.000     H          0.12791   
         H26       1.0000    0.90050   0.35150   0.69170   Biso      1.000     H          0.137565  
         H27       1.0000    0.62000   0.63590   0.53640   Biso      1.000     H          0.111042  
         H28       1.0000    0.68340   0.35650   0.89890   Biso      1.000     H          0.12769   
         H29       1.0000    0.40700   0.47390   0.22420   Biso      1.000     H          0.128909  
         H30       1.0000    0.59950   0.64850   0.19170   Biso      1.000     H          0.137565  
         H31       1.0000    0.37670   0.85810   0.50960   Biso      1.000     H          0.14782   
         H32       1.0000    0.38000   0.36410   0.46360   Biso      1.000     H          0.111042  
         H33       1.0000    0.12330   0.14190   0.00960   Biso      1.000     H          0.14782   
         H34       1.0000    0.37450   0.53090   0.56860   Biso      1.000     H          0.115858  
         H35       1.0000    0.62330   0.14190   0.49040   Biso      1.000     H          0.14782   
         H36       1.0000    0.82600   0.81480   0.16620   Biso      1.000     H          0.13101   
         H37       1.0000    0.87450   0.53090   0.93140   Biso      1.000     H          0.115857  
         H38       1.0000    0.59300   0.52610   0.77580   Biso      1.000     H          0.128909  
         H39       1.0000    0.81660   0.64350   0.39890   Biso      1.000     H          0.12769   
         H40       1.0000    0.70320   0.50310   0.08510   Biso      1.000     H          0.130098  
         H41       1.0000    0.48960   0.33680   0.07300   Biso      1.000     H          0.125601  
         H42       1.0000    0.90700   0.47390   0.27580   Biso      1.000     H          0.128909  
         H43       1.0000    0.01040   0.66320   0.57300   Biso      1.000     H          0.125601  
         H44       1.0000    0.97030   0.28310   0.06980   Biso      1.000     H          0.119274  
         H45       1.0000    0.51040   0.66320   0.92700   Biso      1.000     H          0.1256    
         H46       1.0000    0.87670   0.85810   0.99040   Biso      1.000     H          0.14782   
         H47       1.0000    0.25610   0.20630   0.07020   Biso      1.000     H          0.118329  
         H48       1.0000    0.62550   0.46910   0.43140   Biso      1.000     H          0.115857  
         O1        1.0000    0.20070   0.18218   0.51226   Biso      1.000     O          -0.662228           
         O2        1.0000    0.33900   0.86256   0.88348   Biso      1.000     O          -0.656554           
         O3        1.0000    0.90900   0.04766   0.73763   Biso      1.000     O          -0.673071           
         O4        1.0000    0.14230   0.90015   0.14178   Biso      1.000     O          -0.66848  
         O5        1.0000    0.40900   0.04766   0.76237   Biso      1.000     O          -0.673071           
         O6        1.0000    0.73260   0.30525   0.51754   Biso      1.000     O          -0.193013           
         O7        1.0000    0.13300   0.94050   0.50686   Biso      1.000     O          -0.748045           
         O8        1.0000    0.09710   0.81657   0.40847   Biso      1.000     O          -0.584652           
         O9        1.0000    0.66130   0.22787   0.77965   Biso      1.000     O          -0.289888           
         O10       1.0000    0.87410   0.35174   0.15265   Biso      1.000     O          -0.192438           
         O11       1.0000    0.90290   0.18343   0.59153   Biso      1.000     O          -0.584652           
         O12       1.0000    0.36700   0.05950   0.00686   Biso      1.000     O          -0.748045           
         O13       1.0000    0.29930   0.81782   0.01226   Biso      1.000     O          -0.662228           
         O14       1.0000    0.62590   0.64826   0.65265   Biso      1.000     O          -0.192439           
         O15       1.0000    0.16100   0.13744   0.38348   Biso      1.000     O          -0.656554           
         O16       1.0000    0.59710   0.81657   0.09153   Biso      1.000     O          -0.584652           
         O17       1.0000    0.85770   0.09985   0.85822   Biso      1.000     O          -0.66848  
         O18       1.0000    0.37410   0.35174   0.34735   Biso      1.000     O          -0.192439           
         O19       1.0000    0.79930   0.81782   0.48774   Biso      1.000     O          -0.662228           
         O20       1.0000    0.26740   0.69475   0.48246   Biso      1.000     O          -0.193013           
         O21       1.0000    0.59100   0.95234   0.23763   Biso      1.000     O          -0.673071           
         O22       1.0000    0.83900   0.86256   0.61652   Biso      1.000     O          -0.656554           
         O23       1.0000    0.16130   0.22787   0.72035   Biso      1.000     O          -0.289888           
         O24       1.0000    0.23260   0.30525   0.98246   Biso      1.000     O          -0.193013           
         O25       1.0000    0.64230   0.90015   0.35822   Biso      1.000     O          -0.66848  
         O26       1.0000    0.33870   0.77213   0.22035   Biso      1.000     O          -0.289887           
         O27       1.0000    0.40290   0.18343   0.90847   Biso      1.000     O          -0.584652           
         O28       1.0000    0.86700   0.05950   0.49314   Biso      1.000     O          -0.748045           
         O29       1.0000    0.12590   0.64826   0.84735   Biso      1.000     O          -0.192439           
         O30       1.0000    0.09100   0.95234   0.26237   Biso      1.000     O          -0.673071           
         O31       1.0000    0.66100   0.13744   0.11652   Biso      1.000     O          -0.656554           
         O32       1.0000    0.63300   0.94050   0.99314   Biso      1.000     O          -0.748045           
         O33       1.0000    0.83870   0.77213   0.27965   Biso      1.000     O          -0.289888           
         O34       1.0000    0.76740   0.69475   0.01754   Biso      1.000     O          -0.193013           
         O35       1.0000    0.70070   0.18218   0.98774   Biso      1.000     O          -0.662228           
         O36       1.0000    0.35770   0.09985   0.64178   Biso      1.000     O          -0.66848 