
##########################################################################
#               Crystallographic Information Format file
#               Produced by PyCifRW module
#
#  This is a CIF file.  CIF has been adopted by the International
#  Union of Crystallography as the standard for data archiving and
#  transmission.
#
#  For information on this file format, follow the CIF links at
#  http://www.iucr.org
##########################################################################

data_image0

_cell_length_a                          9.1304
_cell_length_b                          9.1304
_cell_length_c                          14.7099
_cell_angle_alpha                       100.169
_cell_angle_beta                        100.169
_cell_angle_gamma                       115.539
_symmetry_space_group_name_H-M          'P 1'
_symmetry_int_tables_number             1
loop_
  _symmetry_equiv_pos_as_xyz
         'x, y, z' 
loop_
  _atom_site_label
  _atom_site_occupancy
  _atom_site_fract_x
  _atom_site_fract_y
  _atom_site_fract_z
  _atom_site_thermal_displace_type
  _atom_site_B_iso_or_equiv
  _atom_site_type_symbol
  _atom_site_charge
         C1        1.0000    0.04091   0.72131   0.43502   Biso      1.000     C          -0.161564           
         C2        1.0000    0.89411   0.71371   0.43502   Biso      1.000     C          -0.160704           
         C3        1.0000    0.74792   0.56092   0.44164   Biso      1.000     C          0.677488  
         C4        1.0000    0.77869   0.45909   0.06498   Biso      1.000     C          -0.161564           
         C5        1.0000    0.61928   0.30628   0.05836   Biso      1.000     C          0.677215  
         C6        1.0000    0.78629   0.60589   0.06498   Biso      1.000     C          -0.160704           
         C7        1.0000    0.93908   0.75208   0.05836   Biso      1.000     C          0.677488  
         C8        1.0000    0.95909   0.27869   0.56498   Biso      1.000     C          -0.161564           
         C9        1.0000    0.80628   0.11928   0.55836   Biso      1.000     C          0.677215  
         C10       1.0000    0.10589   0.28629   0.56498   Biso      1.000     C          -0.160705           
         C11       1.0000    0.25208   0.43908   0.55836   Biso      1.000     C          0.677488  
         C12       1.0000    0.22131   0.54091   0.93502   Biso      1.000     C          -0.161564           
         C13       1.0000    0.38072   0.69372   0.94164   Biso      1.000     C          0.677215  
         C14       1.0000    0.21371   0.39411   0.93502   Biso      1.000     C          -0.160704           
         C15       1.0000    0.06092   0.24792   0.94164   Biso      1.000     C          0.677488  
         C16       1.0000    0.57470   0.92530   0.75000   Biso      1.000     C          0.525448  
         C17       1.0000    0.32470   0.17530   0.25000   Biso      1.000     C          0.525633  
         C18       1.0000    0.42530   0.07470   0.25000   Biso      1.000     C          0.525448  
         C19       1.0000    0.19372   0.88072   0.44164   Biso      1.000     C          0.677215  
         C20       1.0000    0.67530   0.82470   0.75000   Biso      1.000     C          0.525633  
         H1        1.0000    0.06200   0.62400   0.42600   Biso      1.000     H          0.135895  
         H2        1.0000    0.86400   0.80200   0.42600   Biso      1.000     H          0.135276  
         H3        1.0000    0.87600   0.43800   0.07400   Biso      1.000     H          0.135895  
         H4        1.0000    0.69800   0.63600   0.07400   Biso      1.000     H          0.135276  
         H5        1.0000    0.93800   0.37600   0.57400   Biso      1.000     H          0.135895  
         H6        1.0000    0.13600   0.19800   0.57400   Biso      1.000     H          0.135275  
         H7        1.0000    0.12400   0.56200   0.92600   Biso      1.000     H          0.135895  
         H8        1.0000    0.30200   0.36400   0.92600   Biso      1.000     H          0.135276  
         Nd1       1.0000    0.74060   0.99060   0.98120   Biso      1.000     Nd          2.094399  
         Nd2       1.0000    0.49060   0.24060   0.48120   Biso      1.000     Nd          2.094397  
         Nd3       1.0000    0.25940   0.00940   0.01880   Biso      1.000     Nd          2.094397  
         Nd4       1.0000    0.50940   0.75940   0.51880   Biso      1.000     Nd          2.094399  
         O1        1.0000    0.49089   0.06767   0.32996   Biso      1.000     O          -0.602321           
         O2        1.0000    0.63427   0.58431   0.46738   Biso      1.000     O          -0.743409           
         O3        1.0000    0.73942   0.41736   0.42398   Biso      1.000     O          -0.615835           
         O4        1.0000    0.33907   0.26229   0.32996   Biso      1.000     O          -0.602586           
         O5        1.0000    0.61693   0.16689   0.03262   Biso      1.000     O          -0.744108           
         O6        1.0000    0.49338   0.31544   0.07602   Biso      1.000     O          -0.615284           
         O7        1.0000    0.43233   0.00911   0.17004   Biso      1.000     O          -0.602321           
         O8        1.0000    0.91569   0.86573   0.03262   Biso      1.000     O          -0.743409           
         O9        1.0000    0.08264   0.76058   0.07602   Biso      1.000     O          -0.615835           
         O10       1.0000    0.23771   0.16093   0.17004   Biso      1.000     O          -0.602586           
         O11       1.0000    0.66689   0.11693   0.53262   Biso      1.000     O          -0.744108           
         O12       1.0000    0.81544   0.99338   0.57602   Biso      1.000     O          -0.615284           
         O13       1.0000    0.50911   0.93233   0.67004   Biso      1.000     O          -0.602321           
         O14       1.0000    0.36573   0.41569   0.53262   Biso      1.000     O          -0.74341  
         O15       1.0000    0.26058   0.58264   0.57602   Biso      1.000     O          -0.615835           
         O16       1.0000    0.66093   0.73771   0.67004   Biso      1.000     O          -0.602586           
         O17       1.0000    0.38307   0.83311   0.96738   Biso      1.000     O          -0.744108           
         O18       1.0000    0.50662   0.68456   0.92398   Biso      1.000     O          -0.615284           
         O19       1.0000    0.56767   0.99089   0.82996   Biso      1.000     O          -0.602322           
         O20       1.0000    0.08431   0.13427   0.96738   Biso      1.000     O          -0.743409           
         O21       1.0000    0.91736   0.23942   0.92398   Biso      1.000     O          -0.615835           
         O22       1.0000    0.76229   0.83907   0.82996   Biso      1.000     O          -0.602586           
         O23       1.0000    0.18456   0.00662   0.42398   Biso      1.000     O          -0.615284           
         O24       1.0000    0.33311   0.88307   0.46738   Biso      1.000     O          -0.744108 