
##########################################################################
#               Crystallographic Information Format file
#               Produced by PyCifRW module
#
#  This is a CIF file.  CIF has been adopted by the International
#  Union of Crystallography as the standard for data archiving and
#  transmission.
#
#  For information on this file format, follow the CIF links at
#  http://www.iucr.org
##########################################################################

data_image0

_cell_length_a                          8.7519
_cell_length_b                          12.028
_cell_length_c                          16.7363
_cell_angle_alpha                       90
_cell_angle_beta                        90
_cell_angle_gamma                       108.932
_symmetry_space_group_name_H-M          'P 1'
_symmetry_int_tables_number             1
loop_
  _symmetry_equiv_pos_as_xyz
         'x, y, z' 
loop_
  _atom_site_label
  _atom_site_occupancy
  _atom_site_fract_x
  _atom_site_fract_y
  _atom_site_fract_z
  _atom_site_thermal_displace_type
  _atom_site_B_iso_or_equiv
  _atom_site_type_symbol
  _atom_site_charge
         C1        1.0000    0.50960   0.54960   0.66465   Biso      1.000     C          0.243486  
         C2        1.0000    0.63110   0.70170   0.57194   Biso      1.000     C          -0.16431  
         C3        1.0000    0.36860   0.39970   0.98620   Biso      1.000     C          0.232541  
         C4        1.0000    0.90160   0.38840   0.74461   Biso      1.000     C          -0.190934           
         C5        1.0000    0.33330   0.13840   0.98020   Biso      1.000     C          0.691904  
         C6        1.0000    0.13110   0.70170   0.92806   Biso      1.000     C          -0.16431  
         C7        1.0000    0.11420   0.49860   0.44400   Biso      1.000     C          -0.178262           
         C8        1.0000    0.28600   0.80250   0.50600   Biso      1.000     C          -0.177241           
         C9        1.0000    0.98430   0.39810   0.45740   Biso      1.000     C          -0.207827           
         C10       1.0000    0.72170   0.66230   0.29845   Biso      1.000     C          0.246327  
         C11       1.0000    0.48430   0.39810   0.04260   Biso      1.000     C          -0.207827           
         C12       1.0000    0.55780   0.88760   0.29411   Biso      1.000     C          0.690385  
         C13       1.0000    0.40160   0.38840   0.75539   Biso      1.000     C          -0.190934           
         C14       1.0000    0.44220   0.11240   0.70589   Biso      1.000     C          0.690385  
         C15       1.0000    0.59840   0.61160   0.24461   Biso      1.000     C          -0.190932           
         C16       1.0000    0.77300   0.81170   0.55718   Biso      1.000     C          0.710353  
         C17       1.0000    0.88580   0.50140   0.55600   Biso      1.000     C          -0.178262           
         C18       1.0000    0.51570   0.60190   0.95740   Biso      1.000     C          -0.207828           
         C19       1.0000    0.26820   0.39310   0.63093   Biso      1.000     C          -0.175968           
         C20       1.0000    0.39440   0.79420   0.29622   Biso      1.000     C          -0.176754           
         C21       1.0000    0.16670   0.86160   0.48020   Biso      1.000     C          0.691904  
         C22       1.0000    0.78600   0.80250   0.99400   Biso      1.000     C          -0.177241           
         C23       1.0000    0.61590   0.50090   0.38806   Biso      1.000     C          -0.227953           
         C24       1.0000    0.49040   0.45040   0.33535   Biso      1.000     C          0.243487  
         C25       1.0000    0.51730   0.49510   0.73630   Biso      1.000     C          -0.190357           
         C26       1.0000    0.05780   0.88760   0.20589   Biso      1.000     C          0.690385  
         C27       1.0000    0.86890   0.29830   0.07194   Biso      1.000     C          -0.16431  
         C28       1.0000    0.01730   0.49510   0.76370   Biso      1.000     C          -0.19036  
         C29       1.0000    0.27300   0.81170   0.94282   Biso      1.000     C          0.710353  
         C30       1.0000    0.60560   0.20580   0.70378   Biso      1.000     C          -0.176753           
         C31       1.0000    0.01570   0.60190   0.54260   Biso      1.000     C          -0.207827           
         C32       1.0000    0.11590   0.50090   0.11194   Biso      1.000     C          -0.227953           
         C33       1.0000    0.36890   0.29830   0.42806   Biso      1.000     C          -0.16431  
         C34       1.0000    0.63140   0.60030   0.01380   Biso      1.000     C          0.232543  
         C35       1.0000    0.13140   0.60030   0.48620   Biso      1.000     C          0.232544  
         C36       1.0000    0.83330   0.13840   0.51980   Biso      1.000     C          0.691904  
         C37       1.0000    0.72700   0.18830   0.05718   Biso      1.000     C          0.710353  
         C38       1.0000    0.09840   0.61160   0.25539   Biso      1.000     C          -0.190934           
         C39       1.0000    0.66670   0.86160   0.01980   Biso      1.000     C          0.691904  
         C40       1.0000    0.38410   0.49910   0.61194   Biso      1.000     C          -0.227951           
         C41       1.0000    0.38580   0.50140   0.94400   Biso      1.000     C          -0.178258           
         C42       1.0000    0.89440   0.79420   0.20378   Biso      1.000     C          -0.176754           
         C43       1.0000    0.99040   0.45040   0.16465   Biso      1.000     C          0.243487  
         C44       1.0000    0.00960   0.54960   0.83535   Biso      1.000     C          0.243489  
         C45       1.0000    0.21400   0.19750   0.00600   Biso      1.000     C          -0.177241           
         C46       1.0000    0.10560   0.20580   0.79622   Biso      1.000     C          -0.176753           
         C47       1.0000    0.22170   0.66230   0.20155   Biso      1.000     C          0.246329  
         C48       1.0000    0.71400   0.19750   0.49400   Biso      1.000     C          -0.177241           
         C49       1.0000    0.22700   0.18830   0.44282   Biso      1.000     C          0.710353  
         C50       1.0000    0.48270   0.50490   0.26370   Biso      1.000     C          -0.190357           
         C51       1.0000    0.94220   0.11240   0.79411   Biso      1.000     C          0.690385  
         C52       1.0000    0.23180   0.60690   0.13093   Biso      1.000     C          -0.175963           
         C53       1.0000    0.61420   0.49860   0.05600   Biso      1.000     C          -0.178259           
         C54       1.0000    0.76820   0.39310   0.86907   Biso      1.000     C          -0.175968           
         C55       1.0000    0.77830   0.33770   0.79845   Biso      1.000     C          0.246332  
         C56       1.0000    0.86860   0.39970   0.51380   Biso      1.000     C          0.232544  
         C57       1.0000    0.98270   0.50490   0.23630   Biso      1.000     C          -0.190357           
         C58       1.0000    0.88410   0.49910   0.88806   Biso      1.000     C          -0.227951           
         C59       1.0000    0.73180   0.60690   0.36907   Biso      1.000     C          -0.175962           
         C60       1.0000    0.27830   0.33770   0.70155   Biso      1.000     C          0.246332  
         H1        1.0000    0.72400   0.21050   0.43670   Biso      1.000     H          0.114837  
         H2        1.0000    0.03170   0.71970   0.93550   Biso      1.000     H          0.115593  
         H3        1.0000    0.46830   0.28030   0.43550   Biso      1.000     H          0.115593  
         H4        1.0000    0.81940   0.82110   0.17290   Biso      1.000     H          0.131959  
         H5        1.0000    0.10040   0.52980   0.72800   Biso      1.000     H          0.129679  
         H6        1.0000    0.59780   0.27680   0.67920   Biso      1.000     H          0.125807  
         H7        1.0000    0.09780   0.27680   0.82080   Biso      1.000     H          0.125807  
         H8        1.0000    0.37780   0.53630   0.56390   Biso      1.000     H          0.116254  
         H9        1.0000    0.80890   0.50250   0.59410   Biso      1.000     H          0.129106  
         H10       1.0000    0.36710   0.35730   0.46720   Biso      1.000     H          0.112574  
         H11       1.0000    0.18340   0.35930   0.59580   Biso      1.000     H          0.12782   
         H12       1.0000    0.10570   0.14470   0.99560   Biso      1.000     H          0.146007  
         H13       1.0000    0.90680   0.35150   0.69630   Biso      1.000     H          0.137556  
         H14       1.0000    0.02550   0.67020   0.57120   Biso      1.000     H          0.129165  
         H15       1.0000    0.39430   0.85530   0.49560   Biso      1.000     H          0.146007  
         H16       1.0000    0.87780   0.53630   0.93610   Biso      1.000     H          0.116254  
         H17       1.0000    0.89960   0.47020   0.27200   Biso      1.000     H          0.129679  
         H18       1.0000    0.13290   0.64270   0.96720   Biso      1.000     H          0.112574  
         H19       1.0000    0.39960   0.47020   0.22800   Biso      1.000     H          0.129679  
         H20       1.0000    0.22400   0.21050   0.06330   Biso      1.000     H          0.114837  
         H21       1.0000    0.97450   0.32980   0.42880   Biso      1.000     H          0.129165  
         H22       1.0000    0.31940   0.82110   0.32710   Biso      1.000     H          0.131959  
         H23       1.0000    0.40220   0.72320   0.32080   Biso      1.000     H          0.125807  
         H24       1.0000    0.68340   0.35930   0.90420   Biso      1.000     H          0.12782   
         H25       1.0000    0.19110   0.49750   0.40590   Biso      1.000     H          0.129106  
         H26       1.0000    0.77600   0.78950   0.93670   Biso      1.000     H          0.114837  
         H27       1.0000    0.89430   0.85530   0.00440   Biso      1.000     H          0.146008  
         H28       1.0000    0.30890   0.50250   0.90590   Biso      1.000     H          0.129106  
         H29       1.0000    0.63290   0.64270   0.53280   Biso      1.000     H          0.112574  
         H30       1.0000    0.27600   0.78950   0.56330   Biso      1.000     H          0.114837  
         H31       1.0000    0.60570   0.14470   0.50440   Biso      1.000     H          0.146008  
         H32       1.0000    0.96830   0.28030   0.06450   Biso      1.000     H          0.115593  
         H33       1.0000    0.86710   0.35730   0.03280   Biso      1.000     H          0.112574  
         H34       1.0000    0.90220   0.72320   0.17920   Biso      1.000     H          0.125807  
         H35       1.0000    0.12220   0.46370   0.06390   Biso      1.000     H          0.116254  
         H36       1.0000    0.68060   0.17890   0.67290   Biso      1.000     H          0.131959  
         H37       1.0000    0.81660   0.64070   0.40420   Biso      1.000     H          0.12782   
         H38       1.0000    0.47450   0.32980   0.07120   Biso      1.000     H          0.129165  
         H39       1.0000    0.59320   0.64850   0.19630   Biso      1.000     H          0.137555  
         H40       1.0000    0.62220   0.46370   0.43610   Biso      1.000     H          0.116254  
         H41       1.0000    0.40680   0.35150   0.80370   Biso      1.000     H          0.137556  
         H42       1.0000    0.18060   0.17890   0.82710   Biso      1.000     H          0.131959  
         H43       1.0000    0.69110   0.49750   0.09410   Biso      1.000     H          0.129106  
         H44       1.0000    0.60040   0.52980   0.77200   Biso      1.000     H          0.129679  
         H45       1.0000    0.52550   0.67020   0.92880   Biso      1.000     H          0.129165  
         H46       1.0000    0.53170   0.71970   0.56450   Biso      1.000     H          0.115593  
         H47       1.0000    0.09320   0.64850   0.30370   Biso      1.000     H          0.137556  
         H48       1.0000    0.31660   0.64070   0.09580   Biso      1.000     H          0.12782   
         O1        1.0000    0.14530   0.89734   0.14582   Biso      1.000     O          -0.674655           
         O2        1.0000    0.83900   0.77103   0.28508   Biso      1.000     O          -0.292786           
         O3        1.0000    0.84160   0.87530   0.61407   Biso      1.000     O          -0.660699           
         O4        1.0000    0.76710   0.69370   0.03220   Biso      1.000     O          -0.190649           
         O5        1.0000    0.40560   0.05010   0.76750   Biso      1.000     O          -0.676354           
         O6        1.0000    0.65840   0.12470   0.11407   Biso      1.000     O          -0.660699           
         O7        1.0000    0.90560   0.05010   0.73250   Biso      1.000     O          -0.676354           
         O8        1.0000    0.59440   0.94990   0.23250   Biso      1.000     O          -0.676354           
         O9        1.0000    0.66100   0.22897   0.78508   Biso      1.000     O          -0.292787           
         O10       1.0000    0.63170   0.65487   0.64954   Biso      1.000     O          -0.192641           
         O11       1.0000    0.39640   0.16020   0.91339   Biso      1.000     O          -0.625144           
         O12       1.0000    0.34160   0.87530   0.88593   Biso      1.000     O          -0.660699           
         O13       1.0000    0.33900   0.77103   0.21492   Biso      1.000     O          -0.292787           
         O14       1.0000    0.35470   0.10266   0.64582   Biso      1.000     O          -0.674655           
         O15       1.0000    0.09440   0.94990   0.26750   Biso      1.000     O          -0.676354           
         O16       1.0000    0.60360   0.83980   0.08661   Biso      1.000     O          -0.625144           
         O17       1.0000    0.64220   0.93410   0.97370   Biso      1.000     O          -0.748879           
         O18       1.0000    0.23290   0.30630   0.96780   Biso      1.000     O          -0.190649           
         O19       1.0000    0.64530   0.89734   0.35418   Biso      1.000     O          -0.674655           
         O20       1.0000    0.16100   0.22897   0.71492   Biso      1.000     O          -0.292787           
         O21       1.0000    0.80500   0.82820   0.48436   Biso      1.000     O          -0.678238           
         O22       1.0000    0.19500   0.17180   0.51564   Biso      1.000     O          -0.678238           
         O23       1.0000    0.73290   0.30630   0.53220   Biso      1.000     O          -0.190649           
         O24       1.0000    0.14220   0.93410   0.52630   Biso      1.000     O          -0.748879           
         O25       1.0000    0.86830   0.34513   0.14954   Biso      1.000     O          -0.192641           
         O26       1.0000    0.69500   0.17180   0.98436   Biso      1.000     O          -0.678238           
         O27       1.0000    0.30500   0.82820   0.01564   Biso      1.000     O          -0.678238           
         O28       1.0000    0.35780   0.06590   0.02630   Biso      1.000     O          -0.748879           
         O29       1.0000    0.89640   0.16020   0.58661   Biso      1.000     O          -0.625144           
         O30       1.0000    0.15840   0.12470   0.38593   Biso      1.000     O          -0.660699           
         O31       1.0000    0.85780   0.06590   0.47370   Biso      1.000     O          -0.748879           
         O32       1.0000    0.26710   0.69370   0.46780   Biso      1.000     O          -0.190649           
         O33       1.0000    0.85470   0.10266   0.85418   Biso      1.000     O          -0.674655           
         O34       1.0000    0.13170   0.65487   0.85046   Biso      1.000     O          -0.192641           
         O35       1.0000    0.36830   0.34513   0.35046   Biso      1.000     O          -0.192641           
         O36       1.0000    0.10360   0.83980   0.41339   Biso      1.000     O          -0.625144           
         Tb1       1.0000    0.42871   0.95240   0.11901   Biso      1.000     Tb          2.098284  
         Tb2       1.0000    0.07129   0.04760   0.61901   Biso      1.000     Tb          2.098284  
         Tb3       1.0000    0.92871   0.95240   0.38099   Biso      1.000     Tb          2.098284  
         Tb4       1.0000    0.57129   0.04760   0.88099   Biso      1.000     Tb          2.098284 