
##########################################################################
#               Crystallographic Information Format file
#               Produced by PyCifRW module
#
#  This is a CIF file.  CIF has been adopted by the International
#  Union of Crystallography as the standard for data archiving and
#  transmission.
#
#  For information on this file format, follow the CIF links at
#  http://www.iucr.org
##########################################################################

data_image0

_cell_length_a                          26.3262
_cell_length_b                          26.3262
_cell_length_c                          7.044
_cell_angle_alpha                       90
_cell_angle_beta                        90
_cell_angle_gamma                       120
_symmetry_space_group_name_H-M          'P 1'
_symmetry_int_tables_number             1
loop_
  _symmetry_equiv_pos_as_xyz
         'x, y, z' 
loop_
  _atom_site_label
  _atom_site_occupancy
  _atom_site_fract_x
  _atom_site_fract_y
  _atom_site_fract_z
  _atom_site_thermal_displace_type
  _atom_site_B_iso_or_equiv
  _atom_site_type_symbol
  _atom_site_charge
         C1        1.0000    0.42097   0.40783   0.75263   Biso      1.000     C          0.629303  
         C2        1.0000    0.00453   0.46137   0.37907   Biso      1.000     C          -0.13955499999999998          
         C3        1.0000    0.98803   0.44317   0.57687   Biso      1.000     C          0.285844  
         C4        1.0000    0.98093   0.48347   0.68767   Biso      1.000     C          -0.200388           
         C5        1.0000    0.15013   0.83587   0.64567   Biso      1.000     C          -0.200149           
         C6        1.0000    0.10983   0.78847   0.75647   Biso      1.000     C          0.285543  
         C7        1.0000    0.12803   0.79017   0.95427   Biso      1.000     C          -0.139473           
         C8        1.0000    0.08763   0.74117   0.08597   Biso      1.000     C          0.629834  
         C9        1.0000    0.24570   0.92550   0.58070   Biso      1.000     C          0.629204  
         C10       1.0000    0.20530   0.87650   0.71240   Biso      1.000     C          -0.139007           
         C11       1.0000    0.22350   0.87820   0.91020   Biso      1.000     C          0.28416399999999997           
         C12       1.0000    0.18320   0.83080   0.02100   Biso      1.000     C          -0.19919800000000001          
         C13       1.0000    0.48347   0.50253   0.31233   Biso      1.000     C          -0.200282           
         C14       1.0000    0.44317   0.45513   0.42313   Biso      1.000     C          0.285494  
         C15       1.0000    0.46137   0.45683   0.62093   Biso      1.000     C          -0.13927  
         C16       1.0000    0.16413   0.31427   0.64567   Biso      1.000     C          -0.200101           
         C17       1.0000    0.01313   0.42097   0.24737   Biso      1.000     C          0.629616  
         C18       1.0000    0.92550   0.67980   0.41930   Biso      1.000     C          0.629213  
         C19       1.0000    0.87650   0.67120   0.28760   Biso      1.000     C          -0.139014           
         C20       1.0000    0.87820   0.65470   0.08980   Biso      1.000     C          0.284159  
         C21       1.0000    0.21153   0.32137   0.75647   Biso      1.000     C          0.28560399999999997           
         C22       1.0000    0.20983   0.33787   0.95427   Biso      1.000     C          -0.13941900000000002          
         C23       1.0000    0.25883   0.34647   0.08597   Biso      1.000     C          0.629566  
         C24       1.0000    0.67980   0.75430   0.58070   Biso      1.000     C          0.629189  
         C25       1.0000    0.67120   0.79470   0.71240   Biso      1.000     C          -0.138907           
         C26       1.0000    0.65470   0.77650   0.91020   Biso      1.000     C          0.28416199999999997           
         C27       1.0000    0.64760   0.81680   0.02100   Biso      1.000     C          -0.199211           
         C28       1.0000    0.91237   0.25883   0.91403   Biso      1.000     C          0.629834  
         C29       1.0000    0.49747   0.98093   0.31233   Biso      1.000     C          -0.200232           
         C30       1.0000    0.54317   0.00453   0.62093   Biso      1.000     C          -0.139755           
         C31       1.0000    0.59217   0.01313   0.75263   Biso      1.000     C          0.629412  
         C32       1.0000    0.34647   0.08763   0.91403   Biso      1.000     C          0.629807  
         C33       1.0000    0.33787   0.12803   0.04573   Biso      1.000     C          -0.13955399999999998          
         C34       1.0000    0.32137   0.10983   0.24353   Biso      1.000     C          0.285459  
         C35       1.0000    0.31427   0.15013   0.35433   Biso      1.000     C          -0.200068           
         C36       1.0000    0.83080   0.64760   0.97900   Biso      1.000     C          -0.199267           
         C37       1.0000    0.54487   0.98803   0.42313   Biso      1.000     C          0.28576599999999996           
         C38       1.0000    0.87197   0.20983   0.04573   Biso      1.000     C          -0.139473           
         C39       1.0000    0.50253   0.01907   0.68767   Biso      1.000     C          -0.200231           
         C40       1.0000    0.84987   0.16413   0.35433   Biso      1.000     C          -0.200149           
         C41       1.0000    0.01907   0.51653   0.31233   Biso      1.000     C          -0.20038699999999998          
         C42       1.0000    0.01197   0.55683   0.42313   Biso      1.000     C          0.285844  
         C43       1.0000    0.99547   0.53863   0.62093   Biso      1.000     C          -0.139553           
         C44       1.0000    0.98687   0.57903   0.75263   Biso      1.000     C          0.629616  
         C45       1.0000    0.74117   0.65353   0.91403   Biso      1.000     C          0.629566  
         C46       1.0000    0.79017   0.66213   0.04573   Biso      1.000     C          -0.13941800000000001          
         C47       1.0000    0.78847   0.67863   0.24353   Biso      1.000     C          0.285603  
         C48       1.0000    0.83587   0.68573   0.35433   Biso      1.000     C          -0.2001   
         C49       1.0000    0.35240   0.18320   0.97900   Biso      1.000     C          -0.19921  
         C50       1.0000    0.34530   0.22350   0.08980   Biso      1.000     C          0.28416199999999997           
         C51       1.0000    0.32880   0.20530   0.28760   Biso      1.000     C          -0.138906           
         C52       1.0000    0.32020   0.24570   0.41930   Biso      1.000     C          0.629189  
         C53       1.0000    0.40783   0.98687   0.24737   Biso      1.000     C          0.629412  
         C54       1.0000    0.45683   0.99547   0.37907   Biso      1.000     C          -0.139754           
         C55       1.0000    0.45513   0.01197   0.57687   Biso      1.000     C          0.28576599999999996           
         C56       1.0000    0.89017   0.21153   0.24353   Biso      1.000     C          0.285543  
         C57       1.0000    0.12180   0.34530   0.91020   Biso      1.000     C          0.284159  
         C58       1.0000    0.16920   0.35240   0.02100   Biso      1.000     C          -0.199266           
         C59       1.0000    0.07450   0.32020   0.58070   Biso      1.000     C          0.629213  
         C60       1.0000    0.81680   0.16920   0.97900   Biso      1.000     C          -0.19919800000000001          
         C61       1.0000    0.77650   0.12180   0.08980   Biso      1.000     C          0.28416399999999997           
         C62       1.0000    0.79470   0.12350   0.28760   Biso      1.000     C          -0.139007           
         C63       1.0000    0.75430   0.07450   0.41930   Biso      1.000     C          0.629204  
         C64       1.0000    0.57903   0.59217   0.24737   Biso      1.000     C          0.629303  
         C65       1.0000    0.12350   0.32880   0.71240   Biso      1.000     C          -0.139013           
         C66       1.0000    0.55683   0.54487   0.57687   Biso      1.000     C          0.285494  
         C67       1.0000    0.51653   0.49747   0.68767   Biso      1.000     C          -0.200281           
         C68       1.0000    0.53863   0.54317   0.37907   Biso      1.000     C          -0.139269           
         C69       1.0000    0.68573   0.84987   0.64567   Biso      1.000     C          -0.200067           
         C70       1.0000    0.67863   0.89017   0.75647   Biso      1.000     C          0.285459  
         C71       1.0000    0.66213   0.87197   0.95427   Biso      1.000     C          -0.139553           
         C72       1.0000    0.65353   0.91237   0.08597   Biso      1.000     C          0.629807  
         H1        1.0000    0.83567   0.69423   0.49453   Biso      1.000     H          0.138441  
         H2        1.0000    0.63910   0.80810   0.16120   Biso      1.000     H          0.13824   
         H3        1.0000    0.97243   0.47477   0.82787   Biso      1.000     H          0.138698  
         H4        1.0000    0.30577   0.14143   0.49453   Biso      1.000     H          0.1384    
         H5        1.0000    0.19190   0.83100   0.16120   Biso      1.000     H          0.138234  
         H6        1.0000    0.16900   0.36090   0.16120   Biso      1.000     H          0.138239  
         H7        1.0000    0.85857   0.16433   0.49453   Biso      1.000     H          0.138449  
         H8        1.0000    0.52523   0.49767   0.82787   Biso      1.000     H          0.138621  
         H9        1.0000    0.16433   0.30577   0.50547   Biso      1.000     H          0.138441  
         H10       1.0000    0.50233   0.02757   0.82787   Biso      1.000     H          0.138684  
         H11       1.0000    0.02757   0.52523   0.17213   Biso      1.000     H          0.138698  
         H12       1.0000    0.83100   0.63910   0.83880   Biso      1.000     H          0.138239  
         H13       1.0000    0.80810   0.16900   0.83880   Biso      1.000     H          0.138234  
         H14       1.0000    0.14143   0.83567   0.50547   Biso      1.000     H          0.13844800000000002           
         H15       1.0000    0.69423   0.85857   0.50547   Biso      1.000     H          0.1384    
         H16       1.0000    0.49767   0.97243   0.17213   Biso      1.000     H          0.138684  
         H17       1.0000    0.36090   0.19190   0.83880   Biso      1.000     H          0.13824   
         H18       1.0000    0.47477   0.50233   0.17213   Biso      1.000     H          0.138621  
         Mn1       1.0000    0.36090   0.97530   0.85800   Biso      1.000     Mn          1.025854  
         Mn2       1.0000    0.71893   0.02757   0.80867   Biso      1.000     Mn          1.026082  
         Mn3       1.0000    0.97243   0.69137   0.80867   Biso      1.000     Mn          1.026111  
         Mn4       1.0000    0.02757   0.30863   0.19133   Biso      1.000     Mn          1.026111  
         Mn5       1.0000    0.02470   0.38560   0.85800   Biso      1.000     Mn          1.025808  
         Mn6       1.0000    0.61440   0.63910   0.85800   Biso      1.000     Mn          1.025775  
         Mn7       1.0000    0.63910   0.02470   0.14200   Biso      1.000     Mn          1.025854  
         Mn8       1.0000    0.30577   0.35803   0.47533   Biso      1.000     Mn          1.025975  
         Mn9       1.0000    0.69423   0.64197   0.52467   Biso      1.000     Mn          1.025975  
         Mn10      1.0000    0.97530   0.61440   0.14200   Biso      1.000     Mn          1.025808  
         Mn11      1.0000    0.69137   0.71893   0.19133   Biso      1.000     Mn          1.026153  
         Mn12      1.0000    0.38560   0.36090   0.14200   Biso      1.000     Mn          1.025775  
         Mn13      1.0000    0.05227   0.69423   0.47533   Biso      1.000     Mn          1.026057  
         Mn14      1.0000    0.94773   0.30577   0.52467   Biso      1.000     Mn          1.026057  
         Mn15      1.0000    0.64197   0.94773   0.47533   Biso      1.000     Mn          1.026167  
         Mn16      1.0000    0.30863   0.28107   0.80867   Biso      1.000     Mn          1.026153  
         Mn17      1.0000    0.28107   0.97243   0.19133   Biso      1.000     Mn          1.026082  
         Mn18      1.0000    0.35803   0.05227   0.52467   Biso      1.000     Mn          1.026167  
         O1        1.0000    0.32920   0.29450   0.36150   Biso      1.000     O          -0.570816           
         O2        1.0000    0.30070   0.22780   0.58890   Biso      1.000     O          -0.566674           
         O3        1.0000    0.35720   0.27680   0.01070   Biso      1.000     O          -0.601708           
         O4        1.0000    0.70550   0.03470   0.36150   Biso      1.000     O          -0.5708260000000001           
         O5        1.0000    0.41373   0.02387   0.65597   Biso      1.000     O          -0.602426           
         O6        1.0000    0.40623   0.96737   0.07777   Biso      1.000     O          -0.5671609999999999           
         O7        1.0000    0.03470   0.32920   0.63850   Biso      1.000     O          -0.5707760000000001           
         O8        1.0000    0.36803   0.99587   0.30517   Biso      1.000     O          -0.570365           
         O9        1.0000    0.73957   0.63403   0.74443   Biso      1.000     O          -0.567045           
         O10       1.0000    0.07290   0.30070   0.41110   Biso      1.000     O          -0.566665           
         O11       1.0000    0.08040   0.35720   0.98930   Biso      1.000     O          -0.601684           
         O12       1.0000    0.69053   0.94347   0.67737   Biso      1.000     O          -0.602441           
         O13       1.0000    0.63403   0.89447   0.25557   Biso      1.000     O          -0.56711  
         O14       1.0000    0.66253   0.96117   0.02817   Biso      1.000     O          -0.570788           
         O15       1.0000    0.99587   0.62783   0.69483   Biso      1.000     O          -0.570646           
         O16       1.0000    0.96737   0.56113   0.92223   Biso      1.000     O          -0.5671430000000001           
         O17       1.0000    0.77220   0.07290   0.58890   Biso      1.000     O          -0.566683           
         O18       1.0000    0.02387   0.61013   0.34403   Biso      1.000     O          -0.602471           
         O19       1.0000    0.70137   0.66253   0.97183   Biso      1.000     O          -0.570654           
         O20       1.0000    0.74707   0.69053   0.32263   Biso      1.000     O          -0.602471           
         O21       1.0000    0.72320   0.08040   0.01070   Biso      1.000     O          -0.6017060000000001           
         O22       1.0000    0.67080   0.70550   0.63850   Biso      1.000     O          -0.570816           
         O23       1.0000    0.56113   0.59377   0.07777   Biso      1.000     O          -0.567077           
         O24       1.0000    0.69930   0.77220   0.41110   Biso      1.000     O          -0.566674           
         O25       1.0000    0.64280   0.72320   0.98930   Biso      1.000     O          -0.601708           
         O26       1.0000    0.25293   0.30947   0.67737   Biso      1.000     O          -0.602471           
         O27       1.0000    0.26043   0.36597   0.25557   Biso      1.000     O          -0.567045           
         O28       1.0000    0.29863   0.33747   0.02817   Biso      1.000     O          -0.570654           
         O29       1.0000    0.33747   0.03883   0.97183   Biso      1.000     O          -0.570788           
         O30       1.0000    0.36597   0.10553   0.74443   Biso      1.000     O          -0.56711  
         O31       1.0000    0.30947   0.05653   0.32263   Biso      1.000     O          -0.602441           
         O32       1.0000    0.58627   0.97613   0.34403   Biso      1.000     O          -0.602426           
         O33       1.0000    0.59377   0.03263   0.92223   Biso      1.000     O          -0.5671609999999999           
         O34       1.0000    0.63197   0.00413   0.69483   Biso      1.000     O          -0.570365           
         O35       1.0000    0.00413   0.37217   0.30517   Biso      1.000     O          -0.570646           
         O36       1.0000    0.03263   0.43887   0.07777   Biso      1.000     O          -0.5671430000000001           
         O37       1.0000    0.97613   0.38987   0.65597   Biso      1.000     O          -0.602471           
         O38       1.0000    0.91960   0.64280   0.01070   Biso      1.000     O          -0.601684           
         O39       1.0000    0.92710   0.69930   0.58890   Biso      1.000     O          -0.566665           
         O40       1.0000    0.96530   0.67080   0.36150   Biso      1.000     O          -0.5707760000000001           
         O41       1.0000    0.29450   0.96530   0.63850   Biso      1.000     O          -0.5708260000000001           
         O42       1.0000    0.22780   0.92710   0.41110   Biso      1.000     O          -0.566683           
         O43       1.0000    0.27680   0.91960   0.98930   Biso      1.000     O          -0.6017060000000001           
         O44       1.0000    0.05653   0.74707   0.67737   Biso      1.000     O          -0.602403           
         O45       1.0000    0.10553   0.73957   0.25557   Biso      1.000     O          -0.567284           
         O46       1.0000    0.03883   0.70137   0.02817   Biso      1.000     O          -0.570728           
         O47       1.0000    0.96117   0.29863   0.97183   Biso      1.000     O          -0.570728           
         O48       1.0000    0.89447   0.26043   0.74443   Biso      1.000     O          -0.567284           
         O49       1.0000    0.94347   0.25293   0.32263   Biso      1.000     O          -0.602403           
         O50       1.0000    0.43887   0.40623   0.92223   Biso      1.000     O          -0.567077           
         O51       1.0000    0.37217   0.36803   0.69483   Biso      1.000     O          -0.570429           
         O52       1.0000    0.62783   0.63197   0.30517   Biso      1.000     O          -0.570429           
         O53       1.0000    0.61013   0.58627   0.65597   Biso      1.000     O          -0.602306           
         O54       1.0000    0.38987   0.41373   0.34403   Biso      1.000     O          -0.602306 