
##########################################################################
#               Crystallographic Information Format file
#               Produced by PyCifRW module
#
#  This is a CIF file.  CIF has been adopted by the International
#  Union of Crystallography as the standard for data archiving and
#  transmission.
#
#  For information on this file format, follow the CIF links at
#  http://www.iucr.org
##########################################################################

data_image0

_cell_length_a                          25.8977
_cell_length_b                          25.8977
_cell_length_c                          6.846
_cell_angle_alpha                       90
_cell_angle_beta                        90
_cell_angle_gamma                       120
_symmetry_space_group_name_H-M          'P 1'
_symmetry_int_tables_number             1
loop_
  _symmetry_equiv_pos_as_xyz
         'x, y, z' 
loop_
  _atom_site_label
  _atom_site_occupancy
  _atom_site_fract_x
  _atom_site_fract_y
  _atom_site_fract_z
  _atom_site_thermal_displace_type
  _atom_site_B_iso_or_equiv
  _atom_site_type_symbol
  _atom_site_charge
         C1        1.0000    0.31937   0.10783   0.24423   Biso      1.000     C          0.30345   
         C2        1.0000    0.15243   0.83747   0.63877   Biso      1.000     C          -0.193996           
         C3        1.0000    0.10783   0.78847   0.75577   Biso      1.000     C          0.303413  
         C4        1.0000    0.12513   0.78867   0.95457   Biso      1.000     C          -0.15800899999999998          
         C5        1.0000    0.08633   0.73617   0.09417   Biso      1.000     C          0.625128  
         C6        1.0000    0.33647   0.12513   0.04543   Biso      1.000     C          -0.157977           
         C7        1.0000    0.98163   0.48577   0.69457   Biso      1.000     C          -0.194384           
         C8        1.0000    0.84757   0.16253   0.36123   Biso      1.000     C          -0.193996           
         C9        1.0000    0.58033   0.59717   0.23917   Biso      1.000     C          0.625075  
         C10       1.0000    0.54153   0.54467   0.37877   Biso      1.000     C          -0.15701700000000002          
         C11       1.0000    0.48577   0.50413   0.30543   Biso      1.000     C          -0.194609           
         C12       1.0000    0.44117   0.45513   0.42243   Biso      1.000     C          0.302052  
         C13       1.0000    0.45847   0.45533   0.62123   Biso      1.000     C          -0.15701700000000002          
         C14       1.0000    0.41967   0.40283   0.76083   Biso      1.000     C          0.625075  
         C15       1.0000    0.55883   0.54487   0.57757   Biso      1.000     C          0.302051  
         C16       1.0000    0.98603   0.44117   0.57757   Biso      1.000     C          0.301858  
         C17       1.0000    0.89217   0.21153   0.24423   Biso      1.000     C          0.303413  
         C18       1.0000    0.87487   0.21133   0.04543   Biso      1.000     C          -0.15800899999999998          
         C19       1.0000    0.91367   0.26383   0.90583   Biso      1.000     C          0.625128  
         C20       1.0000    0.21133   0.33647   0.95457   Biso      1.000     C          -0.157855           
         C21       1.0000    0.20820   0.87800   0.71210   Biso      1.000     C          -0.158697           
         C22       1.0000    0.49587   0.98163   0.30543   Biso      1.000     C          -0.194602           
         C23       1.0000    0.54487   0.98603   0.42243   Biso      1.000     C          0.30187600000000003           
         C24       1.0000    0.54467   0.00313   0.62123   Biso      1.000     C          -0.157134           
         C25       1.0000    0.59717   0.01683   0.76083   Biso      1.000     C          0.625015  
         C26       1.0000    0.22550   0.87820   0.91090   Biso      1.000     C          0.303138  
         C27       1.0000    0.18090   0.82920   0.02790   Biso      1.000     C          -0.194908           
         C28       1.0000    0.21153   0.31937   0.75577   Biso      1.000     C          0.303348  
         C29       1.0000    0.16253   0.31497   0.63877   Biso      1.000     C          -0.193907           
         C30       1.0000    0.50413   0.01837   0.69457   Biso      1.000     C          -0.194601           
         C31       1.0000    0.82920   0.64830   0.97210   Biso      1.000     C          -0.194926           
         C32       1.0000    0.87820   0.65270   0.08910   Biso      1.000     C          0.303139  
         C33       1.0000    0.87800   0.66980   0.28790   Biso      1.000     C          -0.158699           
         C34       1.0000    0.93050   0.68350   0.42750   Biso      1.000     C          0.626577  
         C35       1.0000    0.51423   0.49587   0.69457   Biso      1.000     C          -0.194609           
         C36       1.0000    0.24700   0.93050   0.57250   Biso      1.000     C          0.62655   
         C37       1.0000    0.00313   0.45847   0.37877   Biso      1.000     C          -0.15698299999999998          
         C38       1.0000    0.66980   0.79180   0.71210   Biso      1.000     C          -0.15882000000000002          
         C39       1.0000    0.01837   0.51423   0.30543   Biso      1.000     C          -0.194383           
         C40       1.0000    0.01397   0.55883   0.42243   Biso      1.000     C          0.30185700000000004           
         C41       1.0000    0.99687   0.54153   0.62123   Biso      1.000     C          -0.15698099999999998          
         C42       1.0000    0.98317   0.58033   0.76083   Biso      1.000     C          0.6249680000000001  
         C43       1.0000    0.78847   0.68063   0.24423   Biso      1.000     C          0.303348  
         C44       1.0000    0.83747   0.68503   0.36123   Biso      1.000     C          -0.193907           
         C45       1.0000    0.31497   0.15243   0.36123   Biso      1.000     C          -0.193905           
         C46       1.0000    0.35017   0.08633   0.90583   Biso      1.000     C          0.625104  
         C47       1.0000    0.35170   0.18090   0.97210   Biso      1.000     C          -0.194859           
         C48       1.0000    0.34730   0.22550   0.08910   Biso      1.000     C          0.303149  
         C49       1.0000    0.33020   0.20820   0.28790   Biso      1.000     C          -0.15881900000000002          
         C50       1.0000    0.31650   0.24700   0.42750   Biso      1.000     C          0.626583  
         C51       1.0000    0.40283   0.98317   0.23917   Biso      1.000     C          0.625015  
         C52       1.0000    0.45533   0.99687   0.37877   Biso      1.000     C          -0.157133           
         C53       1.0000    0.45513   0.01397   0.57757   Biso      1.000     C          0.30187600000000003           
         C54       1.0000    0.78867   0.66353   0.04543   Biso      1.000     C          -0.157854           
         C55       1.0000    0.68350   0.75300   0.57250   Biso      1.000     C          0.626583  
         C56       1.0000    0.26383   0.35017   0.09417   Biso      1.000     C          0.625387  
         C57       1.0000    0.73617   0.64983   0.90583   Biso      1.000     C          0.625387  
         C58       1.0000    0.81910   0.17080   0.97210   Biso      1.000     C          -0.194908           
         C59       1.0000    0.77450   0.12180   0.08910   Biso      1.000     C          0.303138  
         C60       1.0000    0.79180   0.12200   0.28790   Biso      1.000     C          -0.158697           
         C61       1.0000    0.75300   0.06950   0.42750   Biso      1.000     C          0.62655   
         C62       1.0000    0.06950   0.31650   0.57250   Biso      1.000     C          0.626577  
         C63       1.0000    0.12200   0.33020   0.71210   Biso      1.000     C          -0.158699           
         C64       1.0000    0.12180   0.34730   0.91090   Biso      1.000     C          0.303139  
         C65       1.0000    0.65270   0.77450   0.91090   Biso      1.000     C          0.303149  
         C66       1.0000    0.68503   0.84757   0.63877   Biso      1.000     C          -0.193905           
         C67       1.0000    0.68063   0.89217   0.75577   Biso      1.000     C          0.30345   
         C68       1.0000    0.66353   0.87487   0.95457   Biso      1.000     C          -0.157977           
         C69       1.0000    0.64983   0.91367   0.09417   Biso      1.000     C          0.625104  
         C70       1.0000    0.64830   0.81910   0.02790   Biso      1.000     C          -0.194859           
         C71       1.0000    0.01683   0.41967   0.23917   Biso      1.000     C          0.6249680000000001  
         C72       1.0000    0.17080   0.35170   0.02790   Biso      1.000     C          -0.19492400000000001          
         Co1       1.0000    0.61840   0.65120   0.86700   Biso      1.000     Co          0.944631  
         Co2       1.0000    0.95173   0.31787   0.53367   Biso      1.000     Co          0.944459  
         Co3       1.0000    0.28507   0.98453   0.20033   Biso      1.000     Co          0.9442280000000001  
         Co4       1.0000    0.38160   0.34880   0.13300   Biso      1.000     Co          0.944633  
         Co5       1.0000    0.34880   0.96720   0.86700   Biso      1.000     Co          0.944644  
         Co6       1.0000    0.36613   0.04827   0.53367   Biso      1.000     Co          0.944551  
         Co7       1.0000    0.04827   0.68213   0.46633   Biso      1.000     Co          0.944459  
         Co8       1.0000    0.71493   0.01547   0.79967   Biso      1.000     Co          0.9442290000000001  
         Co9       1.0000    0.69947   0.71493   0.20033   Biso      1.000     Co          0.944161  
         Co10      1.0000    0.65120   0.03280   0.13300   Biso      1.000     Co          0.944643  
         Co11      1.0000    0.31787   0.36613   0.46633   Biso      1.000     Co          0.944536  
         Co12      1.0000    0.03280   0.38160   0.86700   Biso      1.000     Co          0.944631  
         Co13      1.0000    0.68213   0.63387   0.53367   Biso      1.000     Co          0.944534  
         Co14      1.0000    0.96720   0.61840   0.13300   Biso      1.000     Co          0.944631  
         Co15      1.0000    0.01547   0.30053   0.20033   Biso      1.000     Co          0.944241  
         Co16      1.0000    0.63387   0.95173   0.46633   Biso      1.000     Co          0.944551  
         Co17      1.0000    0.30053   0.28507   0.79967   Biso      1.000     Co          0.9441620000000001  
         Co18      1.0000    0.98453   0.69947   0.79967   Biso      1.000     Co          0.94424   
         H1        1.0000    0.52613   0.49787   0.84067   Biso      1.000     H          0.143986  
         H2        1.0000    0.97173   0.47387   0.84067   Biso      1.000     H          0.14394300000000002           
         H3        1.0000    0.16880   0.36160   0.17400   Biso      1.000     H          0.144181  
         H4        1.0000    0.83547   0.69493   0.50733   Biso      1.000     H          0.14388499999999999           
         H5        1.0000    0.30507   0.14053   0.50733   Biso      1.000     H          0.14389100000000002           
         H6        1.0000    0.19280   0.83120   0.17400   Biso      1.000     H          0.14418599999999998           
         H7        1.0000    0.85947   0.16453   0.50733   Biso      1.000     H          0.143985  
         H8        1.0000    0.16453   0.30507   0.49267   Biso      1.000     H          0.14388499999999999           
         H9        1.0000    0.50213   0.02827   0.84067   Biso      1.000     H          0.144096  
         H10       1.0000    0.80720   0.16880   0.82600   Biso      1.000     H          0.14418599999999998           
         H11       1.0000    0.14053   0.83547   0.49267   Biso      1.000     H          0.143985  
         H12       1.0000    0.69493   0.85947   0.49267   Biso      1.000     H          0.14389200000000002           
         H13       1.0000    0.83120   0.63840   0.82600   Biso      1.000     H          0.144181  
         H14       1.0000    0.49787   0.97173   0.15933   Biso      1.000     H          0.144097  
         H15       1.0000    0.02827   0.52613   0.15933   Biso      1.000     H          0.14394300000000002           
         H16       1.0000    0.36160   0.19280   0.82600   Biso      1.000     H          0.14416700000000002           
         H17       1.0000    0.47387   0.50213   0.15933   Biso      1.000     H          0.143986  
         H18       1.0000    0.63840   0.80720   0.17400   Biso      1.000     H          0.14416700000000002           
         O1        1.0000    0.99267   0.63063   0.70533   Biso      1.000     O          -0.585078           
         O2        1.0000    0.43917   0.40803   0.93443   Biso      1.000     O          -0.5269520000000001           
         O3        1.0000    0.36937   0.36203   0.70533   Biso      1.000     O          -0.585068           
         O4        1.0000    0.32600   0.29730   0.37200   Biso      1.000     O          -0.586432           
         O5        1.0000    0.02870   0.32600   0.62800   Biso      1.000     O          -0.586421           
         O6        1.0000    0.07470   0.30220   0.39890   Biso      1.000     O          -0.526927           
         O7        1.0000    0.30220   0.22750   0.60110   Biso      1.000     O          -0.5269199999999999           
         O8        1.0000    0.08220   0.35620   0.99530   Biso      1.000     O          -0.5519   
         O9        1.0000    0.72600   0.08220   0.00470   Biso      1.000     O          -0.551891           
         O10       1.0000    0.77250   0.07470   0.60110   Biso      1.000     O          -0.526938           
         O11       1.0000    0.70270   0.02870   0.37200   Biso      1.000     O          -0.5864090000000001           
         O12       1.0000    0.35620   0.27400   0.00470   Biso      1.000     O          -0.55188  
         O13       1.0000    0.68953   0.94067   0.67137   Biso      1.000     O          -0.5526439999999999           
         O14       1.0000    0.41553   0.02287   0.66197   Biso      1.000     O          -0.55166  
         O15       1.0000    0.63553   0.89417   0.26777   Biso      1.000     O          -0.526814           
         O16       1.0000    0.69537   0.65933   0.96133   Biso      1.000     O          -0.585341           
         O17       1.0000    0.39267   0.41553   0.33803   Biso      1.000     O          -0.551743           
         O18       1.0000    0.74887   0.68953   0.32863   Biso      1.000     O          -0.552558           
         O19       1.0000    0.65933   0.96397   0.03867   Biso      1.000     O          -0.58521  
         O20       1.0000    0.40803   0.96887   0.06557   Biso      1.000     O          -0.5269199999999999           
         O21       1.0000    0.02287   0.60733   0.33803   Biso      1.000     O          -0.551654           
         O22       1.0000    0.96887   0.56083   0.93443   Biso      1.000     O          -0.526904           
         O23       1.0000    0.36203   0.99267   0.29467   Biso      1.000     O          -0.584994           
         O24       1.0000    0.74137   0.63553   0.73223   Biso      1.000     O          -0.527011           
         O25       1.0000    0.36447   0.10583   0.73223   Biso      1.000     O          -0.526813           
         O26       1.0000    0.31047   0.05933   0.32863   Biso      1.000     O          -0.5526439999999999           
         O27       1.0000    0.34067   0.03603   0.96133   Biso      1.000     O          -0.58521  
         O28       1.0000    0.00733   0.36937   0.29467   Biso      1.000     O          -0.585078           
         O29       1.0000    0.03113   0.43917   0.06557   Biso      1.000     O          -0.526903           
         O30       1.0000    0.97713   0.39267   0.66197   Biso      1.000     O          -0.551655           
         O31       1.0000    0.64380   0.72600   0.99530   Biso      1.000     O          -0.55188  
         O32       1.0000    0.69780   0.77250   0.39890   Biso      1.000     O          -0.5269199999999999           
         O33       1.0000    0.67400   0.70270   0.62800   Biso      1.000     O          -0.586431           
         O34       1.0000    0.25113   0.31047   0.67137   Biso      1.000     O          -0.552559           
         O35       1.0000    0.25863   0.36447   0.26777   Biso      1.000     O          -0.527011           
         O36       1.0000    0.29730   0.97130   0.62800   Biso      1.000     O          -0.5864090000000001           
         O37       1.0000    0.22750   0.92530   0.39890   Biso      1.000     O          -0.526938           
         O38       1.0000    0.27400   0.91780   0.99530   Biso      1.000     O          -0.551891           
         O39       1.0000    0.03603   0.69537   0.03867   Biso      1.000     O          -0.585163           
         O40       1.0000    0.30463   0.34067   0.03867   Biso      1.000     O          -0.585341           
         O41       1.0000    0.59197   0.03113   0.93443   Biso      1.000     O          -0.5269199999999999           
         O42       1.0000    0.63797   0.00733   0.70533   Biso      1.000     O          -0.584994           
         O43       1.0000    0.96397   0.30463   0.96133   Biso      1.000     O          -0.585163           
         O44       1.0000    0.89417   0.25863   0.73223   Biso      1.000     O          -0.526871           
         O45       1.0000    0.94067   0.25113   0.32863   Biso      1.000     O          -0.552632           
         O46       1.0000    0.91780   0.64380   0.00470   Biso      1.000     O          -0.551899           
         O47       1.0000    0.92530   0.69780   0.60110   Biso      1.000     O          -0.526927           
         O48       1.0000    0.97130   0.67400   0.37200   Biso      1.000     O          -0.586421           
         O49       1.0000    0.05933   0.74887   0.67137   Biso      1.000     O          -0.552632           
         O50       1.0000    0.10583   0.74137   0.26777   Biso      1.000     O          -0.526871           
         O51       1.0000    0.63063   0.63797   0.29467   Biso      1.000     O          -0.585067           
         O52       1.0000    0.56083   0.59197   0.06557   Biso      1.000     O          -0.5269520000000001           
         O53       1.0000    0.58447   0.97713   0.33803   Biso      1.000     O          -0.55166  
         O54       1.0000    0.60733   0.58447   0.66197   Biso      1.000     O          -0.551743 