
##########################################################################
#               Crystallographic Information Format file
#               Produced by PyCifRW module
#
#  This is a CIF file.  CIF has been adopted by the International
#  Union of Crystallography as the standard for data archiving and
#  transmission.
#
#  For information on this file format, follow the CIF links at
#  http://www.iucr.org
##########################################################################

data_image0

_cell_length_a                          25.914
_cell_length_b                          25.914
_cell_length_c                          6.7986
_cell_angle_alpha                       90
_cell_angle_beta                        90
_cell_angle_gamma                       120
_symmetry_space_group_name_H-M          'P 1'
_symmetry_int_tables_number             1
loop_
  _symmetry_equiv_pos_as_xyz
         'x, y, z' 
loop_
  _atom_site_label
  _atom_site_occupancy
  _atom_site_fract_x
  _atom_site_fract_y
  _atom_site_fract_z
  _atom_site_thermal_displace_type
  _atom_site_B_iso_or_equiv
  _atom_site_type_symbol
  _atom_site_charge
         C1        1.0000    0.42187   0.40423   0.76723   Biso      1.000     C          0.623145  
         C2        1.0000    0.00633   0.46027   0.38297   Biso      1.000     C          -0.154027           
         C3        1.0000    0.99023   0.44547   0.57477   Biso      1.000     C          0.327757  
         C4        1.0000    0.98083   0.48257   0.70227   Biso      1.000     C          -0.220702           
         C5        1.0000    0.14923   0.83507   0.63107   Biso      1.000     C          -0.22065  
         C6        1.0000    0.11213   0.78857   0.75857   Biso      1.000     C          0.327423  
         C7        1.0000    0.12693   0.78727   0.95037   Biso      1.000     C          -0.15370899999999998          
         C8        1.0000    0.08853   0.73757   0.10057   Biso      1.000     C          0.621943  
         C9        1.0000    0.24480   0.92910   0.56610   Biso      1.000     C          0.6217779999999999  
         C10       1.0000    0.20640   0.87940   0.71630   Biso      1.000     C          -0.153994           
         C11       1.0000    0.22120   0.87810   0.90810   Biso      1.000     C          0.327612  
         C12       1.0000    0.18410   0.83160   0.03560   Biso      1.000     C          -0.221558           
         C13       1.0000    0.48257   0.50173   0.29773   Biso      1.000     C          -0.220255           
         C14       1.0000    0.44547   0.45523   0.42523   Biso      1.000     C          0.327577  
         C15       1.0000    0.46027   0.45393   0.61703   Biso      1.000     C          -0.15419000000000002          
         C16       1.0000    0.16493   0.31417   0.63107   Biso      1.000     C          -0.220675           
         C17       1.0000    0.01763   0.42187   0.23277   Biso      1.000     C          0.622971  
         C18       1.0000    0.92910   0.68430   0.43390   Biso      1.000     C          0.621814  
         C19       1.0000    0.87940   0.67300   0.28370   Biso      1.000     C          -0.154025           
         C20       1.0000    0.87810   0.65690   0.09190   Biso      1.000     C          0.32761799999999996           
         C21       1.0000    0.21143   0.32357   0.75857   Biso      1.000     C          0.327253  
         C22       1.0000    0.21273   0.33967   0.95037   Biso      1.000     C          -0.153529           
         C23       1.0000    0.26243   0.35097   0.10057   Biso      1.000     C          0.622213  
         C24       1.0000    0.68430   0.75520   0.56610   Biso      1.000     C          0.621795  
         C25       1.0000    0.67300   0.79360   0.71630   Biso      1.000     C          -0.15397  
         C26       1.0000    0.65690   0.77880   0.90810   Biso      1.000     C          0.32759499999999997           
         C27       1.0000    0.64750   0.81590   0.03560   Biso      1.000     C          -0.221462           
         C28       1.0000    0.91147   0.26243   0.89943   Biso      1.000     C          0.621943  
         C29       1.0000    0.49827   0.98083   0.29773   Biso      1.000     C          -0.22061599999999998          
         C30       1.0000    0.54607   0.00633   0.61703   Biso      1.000     C          -0.15404500000000002          
         C31       1.0000    0.59577   0.01763   0.76723   Biso      1.000     C          0.622624  
         C32       1.0000    0.35097   0.08853   0.89943   Biso      1.000     C          0.622092  
         C33       1.0000    0.33967   0.12693   0.04963   Biso      1.000     C          -0.153868           
         C34       1.0000    0.32357   0.11213   0.24143   Biso      1.000     C          0.32734   
         C35       1.0000    0.31417   0.14923   0.36893   Biso      1.000     C          -0.22073800000000002          
         C36       1.0000    0.83160   0.64750   0.96440   Biso      1.000     C          -0.221624           
         C37       1.0000    0.54477   0.99023   0.42523   Biso      1.000     C          0.327558  
         C38       1.0000    0.87307   0.21273   0.04963   Biso      1.000     C          -0.15371700000000002          
         C39       1.0000    0.50173   0.01917   0.70227   Biso      1.000     C          -0.22061599999999998          
         C40       1.0000    0.85077   0.16493   0.36893   Biso      1.000     C          -0.220651           
         C41       1.0000    0.01917   0.51743   0.29773   Biso      1.000     C          -0.2207   
         C42       1.0000    0.00977   0.55453   0.42523   Biso      1.000     C          0.32775   
         C43       1.0000    0.99367   0.53973   0.61703   Biso      1.000     C          -0.15401800000000002          
         C44       1.0000    0.98237   0.57813   0.76723   Biso      1.000     C          0.62297   
         C45       1.0000    0.73757   0.64903   0.89943   Biso      1.000     C          0.622214  
         C46       1.0000    0.78727   0.66033   0.04963   Biso      1.000     C          -0.15353599999999998          
         C47       1.0000    0.78857   0.67643   0.24143   Biso      1.000     C          0.32726   
         C48       1.0000    0.83507   0.68583   0.36893   Biso      1.000     C          -0.220675           
         C49       1.0000    0.35250   0.18410   0.96440   Biso      1.000     C          -0.22146  
         C50       1.0000    0.34310   0.22120   0.09190   Biso      1.000     C          0.327588  
         C51       1.0000    0.32700   0.20640   0.28370   Biso      1.000     C          -0.153962           
         C52       1.0000    0.31570   0.24480   0.43390   Biso      1.000     C          0.621794  
         C53       1.0000    0.40423   0.98237   0.23277   Biso      1.000     C          0.622624  
         C54       1.0000    0.45393   0.99367   0.38297   Biso      1.000     C          -0.15404500000000002          
         C55       1.0000    0.45523   0.00977   0.57477   Biso      1.000     C          0.327558  
         C56       1.0000    0.88787   0.21143   0.24143   Biso      1.000     C          0.32743   
         C57       1.0000    0.12190   0.34310   0.90810   Biso      1.000     C          0.327611  
         C58       1.0000    0.16840   0.35250   0.03560   Biso      1.000     C          -0.221624           
         C59       1.0000    0.07090   0.31570   0.56610   Biso      1.000     C          0.621814  
         C60       1.0000    0.81590   0.16840   0.96440   Biso      1.000     C          -0.221556           
         C61       1.0000    0.77880   0.12190   0.09190   Biso      1.000     C          0.32760500000000004           
         C62       1.0000    0.79360   0.12060   0.28370   Biso      1.000     C          -0.15398599999999998          
         C63       1.0000    0.75520   0.07090   0.43390   Biso      1.000     C          0.621777  
         C64       1.0000    0.57813   0.59577   0.23277   Biso      1.000     C          0.623145  
         C65       1.0000    0.12060   0.32700   0.71630   Biso      1.000     C          -0.15401700000000002          
         C66       1.0000    0.55453   0.54477   0.57477   Biso      1.000     C          0.327577  
         C67       1.0000    0.51743   0.49827   0.70227   Biso      1.000     C          -0.220255           
         C68       1.0000    0.53973   0.54607   0.38297   Biso      1.000     C          -0.15419000000000002          
         C69       1.0000    0.68583   0.85077   0.63107   Biso      1.000     C          -0.22073600000000002          
         C70       1.0000    0.67643   0.88787   0.75857   Biso      1.000     C          0.327333  
         C71       1.0000    0.66033   0.87307   0.95037   Biso      1.000     C          -0.15386  
         C72       1.0000    0.64903   0.91147   0.10057   Biso      1.000     C          0.622091  
         H1        1.0000    0.83657   0.69423   0.49833   Biso      1.000     H          0.156498  
         H2        1.0000    0.63910   0.80900   0.16500   Biso      1.000     H          0.156919  
         H3        1.0000    0.97243   0.47567   0.83167   Biso      1.000     H          0.156325  
         H4        1.0000    0.30577   0.14233   0.49833   Biso      1.000     H          0.156447  
         H5        1.0000    0.19100   0.83010   0.16500   Biso      1.000     H          0.156934  
         H6        1.0000    0.16990   0.36090   0.16500   Biso      1.000     H          0.156943  
         H7        1.0000    0.85767   0.16343   0.49833   Biso      1.000     H          0.156385  
         H8        1.0000    0.52433   0.49677   0.83167   Biso      1.000     H          0.156129  
         H9        1.0000    0.16343   0.30577   0.50167   Biso      1.000     H          0.156498  
         H10       1.0000    0.50323   0.02757   0.83167   Biso      1.000     H          0.156272  
         H11       1.0000    0.47567   0.50323   0.16833   Biso      1.000     H          0.156129  
         H12       1.0000    0.83010   0.63910   0.83500   Biso      1.000     H          0.156943  
         H13       1.0000    0.80900   0.16990   0.83500   Biso      1.000     H          0.156934  
         H14       1.0000    0.02757   0.52433   0.16833   Biso      1.000     H          0.156324  
         H15       1.0000    0.69423   0.85767   0.50167   Biso      1.000     H          0.156447  
         H16       1.0000    0.49677   0.97243   0.16833   Biso      1.000     H          0.156272  
         H17       1.0000    0.36090   0.19100   0.83500   Biso      1.000     H          0.156919  
         H18       1.0000    0.14233   0.83657   0.50167   Biso      1.000     H          0.156385  
         O1        1.0000    0.67190   0.70340   0.62490   Biso      1.000     O          -0.583064           
         O2        1.0000    0.03150   0.32810   0.62490   Biso      1.000     O          -0.583013           
         O3        1.0000    0.70340   0.03150   0.37510   Biso      1.000     O          -0.58304  
         O4        1.0000    0.60763   0.58727   0.65007   Biso      1.000     O          -0.6164609999999999           
         O5        1.0000    0.72570   0.07940   0.01660   Biso      1.000     O          -0.6164390000000001           
         O6        1.0000    0.07340   0.30010   0.38880   Biso      1.000     O          -0.521411           
         O7        1.0000    0.56003   0.59327   0.05547   Biso      1.000     O          -0.521876           
         O8        1.0000    0.62993   0.63517   0.29157   Biso      1.000     O          -0.584225           
         O9        1.0000    0.37007   0.36483   0.70843   Biso      1.000     O          -0.584225           
         O10       1.0000    0.43997   0.40673   0.94453   Biso      1.000     O          -0.521876           
         O11       1.0000    0.77330   0.07340   0.61120   Biso      1.000     O          -0.521405           
         O12       1.0000    0.07940   0.35370   0.98340   Biso      1.000     O          -0.616413           
         O13       1.0000    0.63343   0.89337   0.27787   Biso      1.000     O          -0.521655           
         O14       1.0000    0.94097   0.25393   0.31673   Biso      1.000     O          -0.616241           
         O15       1.0000    0.66143   0.96327   0.04177   Biso      1.000     O          -0.58312  
         O16       1.0000    0.69817   0.66143   0.95823   Biso      1.000     O          -0.58343  
         O17       1.0000    0.74007   0.63343   0.72213   Biso      1.000     O          -0.521686           
         O18       1.0000    0.74607   0.68703   0.31673   Biso      1.000     O          -0.616166           
         O19       1.0000    0.02037   0.60763   0.34993   Biso      1.000     O          -0.616449           
         O20       1.0000    0.96677   0.56003   0.94453   Biso      1.000     O          -0.521781           
         O21       1.0000    0.99477   0.62993   0.70843   Biso      1.000     O          -0.5843189999999999           
         O22       1.0000    0.36483   0.99477   0.29157   Biso      1.000     O          -0.5839529999999999           
         O23       1.0000    0.40673   0.96677   0.05547   Biso      1.000     O          -0.521655           
         O24       1.0000    0.41273   0.02037   0.65007   Biso      1.000     O          -0.616343           
         O25       1.0000    0.35370   0.27430   0.01660   Biso      1.000     O          -0.616445           
         O26       1.0000    0.30010   0.22670   0.61120   Biso      1.000     O          -0.521378           
         O27       1.0000    0.32810   0.29660   0.37510   Biso      1.000     O          -0.583064           
         O28       1.0000    0.68703   0.94097   0.68327   Biso      1.000     O          -0.616103           
         O29       1.0000    0.89337   0.25993   0.72213   Biso      1.000     O          -0.52155  
         O30       1.0000    0.39237   0.41273   0.34993   Biso      1.000     O          -0.6164609999999999           
         O31       1.0000    0.00523   0.37007   0.29157   Biso      1.000     O          -0.5843189999999999           
         O32       1.0000    0.63517   0.00523   0.70843   Biso      1.000     O          -0.5839529999999999           
         O33       1.0000    0.31297   0.05903   0.31673   Biso      1.000     O          -0.616104           
         O34       1.0000    0.36657   0.10663   0.72213   Biso      1.000     O          -0.521655           
         O35       1.0000    0.33857   0.03673   0.95823   Biso      1.000     O          -0.58312  
         O36       1.0000    0.96327   0.30183   0.95823   Biso      1.000     O          -0.5831930000000001           
         O37       1.0000    0.03323   0.43997   0.05547   Biso      1.000     O          -0.521781           
         O38       1.0000    0.97963   0.39237   0.65007   Biso      1.000     O          -0.61645  
         O39       1.0000    0.92060   0.64630   0.01660   Biso      1.000     O          -0.616414           
         O40       1.0000    0.92660   0.69990   0.61120   Biso      1.000     O          -0.521411           
         O41       1.0000    0.96850   0.67190   0.37510   Biso      1.000     O          -0.583013           
         O42       1.0000    0.59327   0.03323   0.94453   Biso      1.000     O          -0.521655           
         O43       1.0000    0.58727   0.97963   0.34993   Biso      1.000     O          -0.616343           
         O44       1.0000    0.30183   0.33857   0.04177   Biso      1.000     O          -0.58343  
         O45       1.0000    0.29660   0.96850   0.62490   Biso      1.000     O          -0.58304  
         O46       1.0000    0.22670   0.92660   0.38880   Biso      1.000     O          -0.521405           
         O47       1.0000    0.27430   0.92060   0.98340   Biso      1.000     O          -0.61644  
         O48       1.0000    0.05903   0.74607   0.68327   Biso      1.000     O          -0.61624  
         O49       1.0000    0.25993   0.36657   0.27787   Biso      1.000     O          -0.521686           
         O50       1.0000    0.10663   0.74007   0.27787   Biso      1.000     O          -0.52155  
         O51       1.0000    0.25393   0.31297   0.68327   Biso      1.000     O          -0.616165           
         O52       1.0000    0.03673   0.69817   0.04177   Biso      1.000     O          -0.5831930000000001           
         O53       1.0000    0.64630   0.72570   0.98340   Biso      1.000     O          -0.616446           
         O54       1.0000    0.69990   0.77330   0.38880   Biso      1.000     O          -0.521378           
         Zn1       1.0000    0.28307   0.97873   0.18973   Biso      1.000     Zn          0.989885  
         Zn2       1.0000    0.05027   0.68793   0.47693   Biso      1.000     Zn          0.98993   
         Zn3       1.0000    0.30433   0.28307   0.81027   Biso      1.000     Zn          0.989891  
         Zn4       1.0000    0.36233   0.05027   0.52307   Biso      1.000     Zn          0.989965  
         Zn5       1.0000    0.02127   0.30433   0.18973   Biso      1.000     Zn          0.9899479999999999  
         Zn6       1.0000    0.63767   0.94973   0.47693   Biso      1.000     Zn          0.989965  
         Zn7       1.0000    0.71693   0.02127   0.81027   Biso      1.000     Zn          0.989885  
         Zn8       1.0000    0.94973   0.31207   0.52307   Biso      1.000     Zn          0.98993   
         Zn9       1.0000    0.02900   0.38360   0.85640   Biso      1.000     Zn          0.989992  
         Zn10      1.0000    0.64540   0.02900   0.14360   Biso      1.000     Zn          0.989935  
         Zn11      1.0000    0.97100   0.61640   0.14360   Biso      1.000     Zn          0.989992  
         Zn12      1.0000    0.35460   0.97100   0.85640   Biso      1.000     Zn          0.989935  
         Zn13      1.0000    0.68793   0.63767   0.52307   Biso      1.000     Zn          0.9899680000000001  
         Zn14      1.0000    0.31207   0.36233   0.47693   Biso      1.000     Zn          0.9899680000000001  
         Zn15      1.0000    0.97873   0.69567   0.81027   Biso      1.000     Zn          0.9899479999999999  
         Zn16      1.0000    0.61640   0.64540   0.85640   Biso      1.000     Zn          0.989978  
         Zn17      1.0000    0.69567   0.71693   0.18973   Biso      1.000     Zn          0.989891  
         Zn18      1.0000    0.38360   0.35460   0.14360   Biso      1.000     Zn          0.989978 