
##########################################################################
#               Crystallographic Information Format file
#               Produced by PyCifRW module
#
#  This is a CIF file.  CIF has been adopted by the International
#  Union of Crystallography as the standard for data archiving and
#  transmission.
#
#  For information on this file format, follow the CIF links at
#  http://www.iucr.org
##########################################################################

data_image0

_cell_length_a                          25.8504
_cell_length_b                          25.8504
_cell_length_c                          6.8072
_cell_angle_alpha                       90
_cell_angle_beta                        90
_cell_angle_gamma                       120
_symmetry_space_group_name_H-M          'P 1'
_symmetry_int_tables_number             1
loop_
  _symmetry_equiv_pos_as_xyz
         'x, y, z' 
loop_
  _atom_site_label
  _atom_site_occupancy
  _atom_site_fract_x
  _atom_site_fract_y
  _atom_site_fract_z
  _atom_site_thermal_displace_type
  _atom_site_B_iso_or_equiv
  _atom_site_type_symbol
  _atom_site_charge
         C1        1.0000    0.42147   0.40463   0.76243   Biso      1.000     C          0.677091  
         C2        1.0000    0.98773   0.44547   0.57007   Biso      1.000     C          0.317207  
         C3        1.0000    0.00643   0.45857   0.37877   Biso      1.000     C          -0.158674           
         C4        1.0000    0.98303   0.48507   0.69717   Biso      1.000     C          -0.216977           
         C5        1.0000    0.15173   0.83537   0.63617   Biso      1.000     C          -0.216875           
         C6        1.0000    0.12523   0.78547   0.95457   Biso      1.000     C          -0.158716           
         C7        1.0000    0.11213   0.79107   0.76327   Biso      1.000     C          0.317083  
         C8        1.0000    0.08813   0.73797   0.09577   Biso      1.000     C          0.677331  
         C9        1.0000    0.24520   0.92870   0.57090   Biso      1.000     C          0.677153  
         C10       1.0000    0.22120   0.87560   0.90340   Biso      1.000     C          0.317103  
         C11       1.0000    0.20810   0.88120   0.71210   Biso      1.000     C          -0.158746           
         C12       1.0000    0.18160   0.83130   0.03050   Biso      1.000     C          -0.216889           
         C13       1.0000    0.48507   0.50203   0.30283   Biso      1.000     C          -0.21704  
         C14       1.0000    0.45857   0.45213   0.62123   Biso      1.000     C          -0.15859  
         C15       1.0000    0.44547   0.45773   0.42993   Biso      1.000     C          0.31717199999999995           
         C16       1.0000    0.16463   0.31637   0.63617   Biso      1.000     C          -0.216877           
         C17       1.0000    0.01683   0.42147   0.23757   Biso      1.000     C          0.677036  
         C18       1.0000    0.92870   0.68350   0.42910   Biso      1.000     C          0.677362  
         C19       1.0000    0.87560   0.65440   0.09660   Biso      1.000     C          0.317108  
         C20       1.0000    0.88120   0.67310   0.28790   Biso      1.000     C          -0.15878  
         C21       1.0000    0.21453   0.33977   0.95457   Biso      1.000     C          -0.15851600000000002          
         C22       1.0000    0.20893   0.32107   0.76327   Biso      1.000     C          0.317015  
         C23       1.0000    0.26203   0.35017   0.09577   Biso      1.000     C          0.6769569999999999  
         C24       1.0000    0.68350   0.75480   0.57090   Biso      1.000     C          0.677233  
         C25       1.0000    0.65440   0.77880   0.90340   Biso      1.000     C          0.317123  
         C26       1.0000    0.67310   0.79190   0.71210   Biso      1.000     C          -0.15876700000000002          
         C27       1.0000    0.64970   0.81840   0.03050   Biso      1.000     C          -0.21693099999999998          
         C28       1.0000    0.91187   0.26203   0.90423   Biso      1.000     C          0.677331  
         C29       1.0000    0.49797   0.98303   0.30283   Biso      1.000     C          -0.21671500000000002          
         C30       1.0000    0.54227   0.98773   0.42993   Biso      1.000     C          0.316917  
         C31       1.0000    0.59537   0.01683   0.76243   Biso      1.000     C          0.6774899999999999  
         C32       1.0000    0.35017   0.08813   0.90423   Biso      1.000     C          0.6773560000000001  
         C33       1.0000    0.32107   0.11213   0.23673   Biso      1.000     C          0.31693499999999997           
         C34       1.0000    0.33977   0.12523   0.04543   Biso      1.000     C          -0.158627           
         C35       1.0000    0.31637   0.15173   0.36383   Biso      1.000     C          -0.216989           
         C36       1.0000    0.83130   0.64970   0.96950   Biso      1.000     C          -0.216993           
         C37       1.0000    0.54787   0.00643   0.62123   Biso      1.000     C          -0.15892  
         C38       1.0000    0.88787   0.20893   0.23673   Biso      1.000     C          0.317078  
         C39       1.0000    0.50203   0.01697   0.69717   Biso      1.000     C          -0.21671500000000002          
         C40       1.0000    0.84827   0.16463   0.36383   Biso      1.000     C          -0.216873           
         C41       1.0000    0.01697   0.51493   0.30283   Biso      1.000     C          -0.21698  
         C42       1.0000    0.99357   0.54143   0.62123   Biso      1.000     C          -0.158679           
         C43       1.0000    0.01227   0.55453   0.42993   Biso      1.000     C          0.317212  
         C44       1.0000    0.98317   0.57853   0.76243   Biso      1.000     C          0.677037  
         C45       1.0000    0.73797   0.64983   0.90423   Biso      1.000     C          0.676956  
         C46       1.0000    0.79107   0.67893   0.23673   Biso      1.000     C          0.31701   
         C47       1.0000    0.78547   0.66023   0.04543   Biso      1.000     C          -0.15851099999999999          
         C48       1.0000    0.83537   0.68363   0.36383   Biso      1.000     C          -0.216876           
         C49       1.0000    0.35030   0.18160   0.96950   Biso      1.000     C          -0.21693400000000002          
         C50       1.0000    0.32690   0.20810   0.28790   Biso      1.000     C          -0.158772           
         C51       1.0000    0.34560   0.22120   0.09660   Biso      1.000     C          0.317128  
         C52       1.0000    0.31650   0.24520   0.42910   Biso      1.000     C          0.677234  
         C53       1.0000    0.40463   0.98317   0.23757   Biso      1.000     C          0.6774899999999999  
         C54       1.0000    0.45773   0.01227   0.57007   Biso      1.000     C          0.316917  
         C55       1.0000    0.45213   0.99357   0.37877   Biso      1.000     C          -0.15892  
         C56       1.0000    0.87477   0.21453   0.04543   Biso      1.000     C          -0.158711           
         C57       1.0000    0.11880   0.32690   0.71210   Biso      1.000     C          -0.15878399999999998          
         C58       1.0000    0.16870   0.35030   0.03050   Biso      1.000     C          -0.216995           
         C59       1.0000    0.07130   0.31650   0.57090   Biso      1.000     C          0.677363  
         C60       1.0000    0.81840   0.16870   0.96950   Biso      1.000     C          -0.216892           
         C61       1.0000    0.79190   0.11880   0.28790   Biso      1.000     C          -0.158751           
         C62       1.0000    0.77880   0.12440   0.09660   Biso      1.000     C          0.31710900000000003           
         C63       1.0000    0.75480   0.07130   0.42910   Biso      1.000     C          0.677153  
         C64       1.0000    0.57853   0.59537   0.23757   Biso      1.000     C          0.677091  
         C65       1.0000    0.12440   0.34560   0.90340   Biso      1.000     C          0.317114  
         C66       1.0000    0.54143   0.54787   0.37877   Biso      1.000     C          -0.15859  
         C67       1.0000    0.51493   0.49797   0.69717   Biso      1.000     C          -0.21704  
         C68       1.0000    0.55453   0.54227   0.57007   Biso      1.000     C          0.31717199999999995           
         C69       1.0000    0.68363   0.84827   0.63617   Biso      1.000     C          -0.216991           
         C70       1.0000    0.66023   0.87477   0.95457   Biso      1.000     C          -0.158632           
         C71       1.0000    0.67893   0.88787   0.76327   Biso      1.000     C          0.31694   
         C72       1.0000    0.64983   0.91187   0.09577   Biso      1.000     C          0.6773560000000001  
         H1        1.0000    0.83947   0.69663   0.48833   Biso      1.000     H          0.151842  
         H2        1.0000    0.63670   0.80950   0.15500   Biso      1.000     H          0.151876  
         H3        1.0000    0.97003   0.47617   0.82167   Biso      1.000     H          0.15185   
         H4        1.0000    0.30337   0.14283   0.48833   Biso      1.000     H          0.151981  
         H5        1.0000    0.19050   0.82720   0.15500   Biso      1.000     H          0.151883  
         H6        1.0000    0.17280   0.36330   0.15500   Biso      1.000     H          0.151883  
         H7        1.0000    0.85717   0.16053   0.48833   Biso      1.000     H          0.151821  
         H8        1.0000    0.52383   0.49387   0.82167   Biso      1.000     H          0.151921  
         H9        1.0000    0.16053   0.30337   0.51167   Biso      1.000     H          0.151842  
         H10       1.0000    0.50613   0.02997   0.82167   Biso      1.000     H          0.151901  
         H11       1.0000    0.47617   0.50613   0.17833   Biso      1.000     H          0.151921  
         H12       1.0000    0.82720   0.63670   0.84500   Biso      1.000     H          0.151883  
         H13       1.0000    0.80950   0.17280   0.84500   Biso      1.000     H          0.151883  
         H14       1.0000    0.02997   0.52383   0.17833   Biso      1.000     H          0.15185   
         H15       1.0000    0.69663   0.85717   0.51167   Biso      1.000     H          0.151981  
         H16       1.0000    0.49387   0.97003   0.17833   Biso      1.000     H          0.151901  
         H17       1.0000    0.36330   0.19050   0.84500   Biso      1.000     H          0.151876  
         H18       1.0000    0.14283   0.83947   0.51167   Biso      1.000     H          0.151821  
         O1        1.0000    0.66750   0.70450   0.62810   Biso      1.000     O          -0.590729           
         O2        1.0000    0.03700   0.33250   0.62810   Biso      1.000     O          -0.5906640000000001           
         O3        1.0000    0.70450   0.03700   0.37190   Biso      1.000     O          -0.590659           
         O4        1.0000    0.74263   0.63727   0.73387   Biso      1.000     O          -0.526015           
         O5        1.0000    0.59070   0.02940   0.93280   Biso      1.000     O          -0.526161           
         O6        1.0000    0.08160   0.35580   0.99050   Biso      1.000     O          -0.626116           
         O7        1.0000    0.60753   0.58507   0.65717   Biso      1.000     O          -0.626225           
         O8        1.0000    0.62883   0.62967   0.29477   Biso      1.000     O          -0.590623           
         O9        1.0000    0.37117   0.37033   0.70523   Biso      1.000     O          -0.590623           
         O10       1.0000    0.39247   0.41493   0.34283   Biso      1.000     O          -0.626225           
         O11       1.0000    0.72580   0.08160   0.00950   Biso      1.000     O          -0.626131           
         O12       1.0000    0.02940   0.43870   0.06720   Biso      1.000     O          -0.526104           
         O13       1.0000    0.68913   0.94087   0.67617   Biso      1.000     O          -0.626009           
         O14       1.0000    0.07597   0.30393   0.40053   Biso      1.000     O          -0.5261819999999999           
         O15       1.0000    0.66583   0.96217   0.03857   Biso      1.000     O          -0.590785           
         O16       1.0000    0.70367   0.66583   0.96143   Biso      1.000     O          -0.590541           
         O17       1.0000    0.74827   0.68913   0.32383   Biso      1.000     O          -0.6261909999999999           
         O18       1.0000    0.69607   0.77203   0.40053   Biso      1.000     O          -0.526112           
         O19       1.0000    0.10537   0.74263   0.26613   Biso      1.000     O          -0.526095           
         O20       1.0000    0.02247   0.60753   0.34283   Biso      1.000     O          -0.626138           
         O21       1.0000    0.99917   0.62883   0.70523   Biso      1.000     O          -0.590478           
         O22       1.0000    0.37033   0.99917   0.29477   Biso      1.000     O          -0.590924           
         O23       1.0000    0.41493   0.02247   0.65717   Biso      1.000     O          -0.625988           
         O24       1.0000    0.36273   0.10537   0.73387   Biso      1.000     O          -0.5261319999999999           
         O25       1.0000    0.43870   0.40930   0.93280   Biso      1.000     O          -0.5260859999999999           
         O26       1.0000    0.35580   0.27420   0.00950   Biso      1.000     O          -0.6261180000000001           
         O27       1.0000    0.33250   0.29550   0.37190   Biso      1.000     O          -0.590729           
         O28       1.0000    0.77203   0.07597   0.59947   Biso      1.000     O          -0.52605  
         O29       1.0000    0.94087   0.25173   0.32383   Biso      1.000     O          -0.626117           
         O30       1.0000    0.25737   0.36273   0.26613   Biso      1.000     O          -0.526015           
         O31       1.0000    0.00083   0.37117   0.29477   Biso      1.000     O          -0.590478           
         O32       1.0000    0.62967   0.00083   0.70523   Biso      1.000     O          -0.590924           
         O33       1.0000    0.22797   0.92403   0.40053   Biso      1.000     O          -0.52605  
         O34       1.0000    0.31087   0.05913   0.32383   Biso      1.000     O          -0.626009           
         O35       1.0000    0.33417   0.03783   0.96143   Biso      1.000     O          -0.590785           
         O36       1.0000    0.96217   0.29633   0.96143   Biso      1.000     O          -0.5907859999999999           
         O37       1.0000    0.97753   0.39247   0.65717   Biso      1.000     O          -0.6261369999999999           
         O38       1.0000    0.89463   0.25737   0.73387   Biso      1.000     O          -0.526095           
         O39       1.0000    0.97060   0.56130   0.93280   Biso      1.000     O          -0.526104           
         O40       1.0000    0.91840   0.64420   0.00950   Biso      1.000     O          -0.626116           
         O41       1.0000    0.96300   0.66750   0.37190   Biso      1.000     O          -0.5906640000000001           
         O42       1.0000    0.58507   0.97753   0.34283   Biso      1.000     O          -0.625988           
         O43       1.0000    0.63727   0.89463   0.26613   Biso      1.000     O          -0.5261319999999999           
         O44       1.0000    0.29633   0.33417   0.03857   Biso      1.000     O          -0.590541           
         O45       1.0000    0.29550   0.96300   0.62810   Biso      1.000     O          -0.590659           
         O46       1.0000    0.27420   0.91840   0.99050   Biso      1.000     O          -0.62613  
         O47       1.0000    0.40930   0.97060   0.06720   Biso      1.000     O          -0.526161           
         O48       1.0000    0.92403   0.69607   0.59947   Biso      1.000     O          -0.5261819999999999           
         O49       1.0000    0.25173   0.31087   0.67617   Biso      1.000     O          -0.6261909999999999           
         O50       1.0000    0.05913   0.74827   0.67617   Biso      1.000     O          -0.6261180000000001           
         O51       1.0000    0.30393   0.22797   0.59947   Biso      1.000     O          -0.526112           
         O52       1.0000    0.03783   0.70367   0.03857   Biso      1.000     O          -0.5907859999999999           
         O53       1.0000    0.56130   0.59070   0.06720   Biso      1.000     O          -0.5260859999999999           
         O54       1.0000    0.64420   0.72580   0.99050   Biso      1.000     O          -0.626117           
         Zn1       1.0000    0.28477   0.98243   0.18793   Biso      1.000     Zn          0.972376  
         Zn2       1.0000    0.04857   0.68423   0.47873   Biso      1.000     Zn          0.9722569999999999  
         Zn3       1.0000    0.30233   0.28477   0.81207   Biso      1.000     Zn          0.972376  
         Zn4       1.0000    0.36433   0.04857   0.52127   Biso      1.000     Zn          0.9723649999999999  
         Zn5       1.0000    0.01757   0.30233   0.18793   Biso      1.000     Zn          0.972331  
         Zn6       1.0000    0.63567   0.95143   0.47873   Biso      1.000     Zn          0.9723639999999999  
         Zn7       1.0000    0.71523   0.01757   0.81207   Biso      1.000     Zn          0.972376  
         Zn8       1.0000    0.95143   0.31577   0.52127   Biso      1.000     Zn          0.9722569999999999  
         Zn9       1.0000    0.03100   0.38190   0.85460   Biso      1.000     Zn          0.972342  
         Zn10      1.0000    0.64910   0.03100   0.14540   Biso      1.000     Zn          0.972305  
         Zn11      1.0000    0.96900   0.61810   0.14540   Biso      1.000     Zn          0.972342  
         Zn12      1.0000    0.35090   0.96900   0.85460   Biso      1.000     Zn          0.972305  
         Zn13      1.0000    0.68423   0.63567   0.52127   Biso      1.000     Zn          0.972462  
         Zn14      1.0000    0.31577   0.36433   0.47873   Biso      1.000     Zn          0.972462  
         Zn15      1.0000    0.98243   0.69767   0.81207   Biso      1.000     Zn          0.972331  
         Zn16      1.0000    0.61810   0.64910   0.85460   Biso      1.000     Zn          0.9723440000000001  
         Zn17      1.0000    0.69767   0.71523   0.18793   Biso      1.000     Zn          0.972376  
         Zn18      1.0000    0.38190   0.35090   0.14540   Biso      1.000     Zn          0.9723440000000001 