
##########################################################################
#               Crystallographic Information Format file
#               Produced by PyCifRW module
#
#  This is a CIF file.  CIF has been adopted by the International
#  Union of Crystallography as the standard for data archiving and
#  transmission.
#
#  For information on this file format, follow the CIF links at
#  http://www.iucr.org
##########################################################################

data_image0

_cell_length_a                          25.8728
_cell_length_b                          25.8728
_cell_length_c                          6.87
_cell_angle_alpha                       90
_cell_angle_beta                        90
_cell_angle_gamma                       120
_symmetry_space_group_name_H-M          'P 1'
_symmetry_int_tables_number             1
loop_
  _symmetry_equiv_pos_as_xyz
         'x, y, z' 
loop_
  _atom_site_label
  _atom_site_occupancy
  _atom_site_fract_x
  _atom_site_fract_y
  _atom_site_fract_z
  _atom_site_thermal_displace_type
  _atom_site_B_iso_or_equiv
  _atom_site_type_symbol
  _atom_site_charge
         C1        1.0000    0.42008   0.40256   0.75723   Biso      1.000     C          0.685335  
         C2        1.0000    0.00439   0.45799   0.38087   Biso      1.000     C          -0.183881           
         C3        1.0000    0.98740   0.44278   0.57477   Biso      1.000     C          0.329537  
         C4        1.0000    0.98068   0.48416   0.69387   Biso      1.000     C          -0.208347           
         C5        1.0000    0.15082   0.83681   0.63947   Biso      1.000     C          -0.208491           
         C6        1.0000    0.10944   0.78871   0.75857   Biso      1.000     C          0.329618  
         C7        1.0000    0.12465   0.78693   0.95247   Biso      1.000     C          -0.183762           
         C8        1.0000    0.08674   0.73590   0.09057   Biso      1.000     C          0.685632  
         C9        1.0000    0.24659   0.93077   0.57610   Biso      1.000     C          0.685467  
         C10       1.0000    0.20868   0.87974   0.71420   Biso      1.000     C          -0.183737           
         C11       1.0000    0.22389   0.87796   0.90810   Biso      1.000     C          0.329506  
         C12       1.0000    0.18251   0.82986   0.02720   Biso      1.000     C          -0.208412           
         C13       1.0000    0.48416   0.50347   0.30613   Biso      1.000     C          -0.208503           
         C14       1.0000    0.44278   0.45537   0.42523   Biso      1.000     C          0.329571  
         C15       1.0000    0.45799   0.45359   0.61913   Biso      1.000     C          -0.18365  
         C16       1.0000    0.16319   0.31402   0.63947   Biso      1.000     C          -0.208362           
         C17       1.0000    0.01751   0.42008   0.24277   Biso      1.000     C          0.6856    
         C18       1.0000    0.93077   0.68418   0.42390   Biso      1.000     C          0.685519  
         C19       1.0000    0.87974   0.67106   0.28580   Biso      1.000     C          -0.183846           
         C20       1.0000    0.87796   0.65407   0.09190   Biso      1.000     C          0.329489  
         C21       1.0000    0.21129   0.32074   0.75857   Biso      1.000     C          0.329628  
         C22       1.0000    0.21307   0.33773   0.95247   Biso      1.000     C          -0.183714           
         C23       1.0000    0.26410   0.35085   0.09057   Biso      1.000     C          0.68531   
         C24       1.0000    0.68418   0.75341   0.57610   Biso      1.000     C          0.685478  
         C25       1.0000    0.67106   0.79132   0.71420   Biso      1.000     C          -0.183736           
         C26       1.0000    0.65407   0.77611   0.90810   Biso      1.000     C          0.329519  
         C27       1.0000    0.64735   0.81749   0.02720   Biso      1.000     C          -0.208431           
         C28       1.0000    0.91326   0.26410   0.90943   Biso      1.000     C          0.685632  
         C29       1.0000    0.49653   0.98068   0.30613   Biso      1.000     C          -0.208746           
         C30       1.0000    0.54641   0.00439   0.61913   Biso      1.000     C          -0.183612           
         C31       1.0000    0.59744   0.01751   0.75723   Biso      1.000     C          0.685458  
         C32       1.0000    0.35085   0.08674   0.90943   Biso      1.000     C          0.685441  
         C33       1.0000    0.33773   0.12465   0.04753   Biso      1.000     C          -0.183674           
         C34       1.0000    0.32074   0.10944   0.24143   Biso      1.000     C          0.329462  
         C35       1.0000    0.31402   0.15082   0.36053   Biso      1.000     C          -0.208449           
         C36       1.0000    0.82986   0.64735   0.97280   Biso      1.000     C          -0.208277           
         C37       1.0000    0.54463   0.98740   0.42523   Biso      1.000     C          0.329602  
         C38       1.0000    0.87535   0.21307   0.04753   Biso      1.000     C          -0.183762           
         C39       1.0000    0.50347   0.01932   0.69387   Biso      1.000     C          -0.208746           
         C40       1.0000    0.84918   0.16319   0.36053   Biso      1.000     C          -0.208491           
         C41       1.0000    0.01932   0.51584   0.30613   Biso      1.000     C          -0.208347           
         C42       1.0000    0.01260   0.55722   0.42523   Biso      1.000     C          0.329536  
         C43       1.0000    0.99561   0.54201   0.61913   Biso      1.000     C          -0.183881           
         C44       1.0000    0.98249   0.57992   0.75723   Biso      1.000     C          0.6856    
         C45       1.0000    0.73590   0.64915   0.90943   Biso      1.000     C          0.68531   
         C46       1.0000    0.78693   0.66227   0.04753   Biso      1.000     C          -0.183714           
         C47       1.0000    0.78871   0.67926   0.24143   Biso      1.000     C          0.329628  
         C48       1.0000    0.83681   0.68598   0.36053   Biso      1.000     C          -0.208362           
         C49       1.0000    0.35265   0.18251   0.97280   Biso      1.000     C          -0.208431           
         C50       1.0000    0.34593   0.22389   0.09190   Biso      1.000     C          0.329519  
         C51       1.0000    0.32894   0.20868   0.28580   Biso      1.000     C          -0.183736           
         C52       1.0000    0.31582   0.24659   0.42390   Biso      1.000     C          0.685478  
         C53       1.0000    0.40256   0.98249   0.24277   Biso      1.000     C          0.685458  
         C54       1.0000    0.45359   0.99561   0.38087   Biso      1.000     C          -0.183612           
         C55       1.0000    0.45537   0.01260   0.57477   Biso      1.000     C          0.329602  
         C56       1.0000    0.89056   0.21129   0.24143   Biso      1.000     C          0.329618  
         C57       1.0000    0.12204   0.34593   0.90810   Biso      1.000     C          0.329489  
         C58       1.0000    0.17014   0.35265   0.02720   Biso      1.000     C          -0.208277           
         C59       1.0000    0.06923   0.31582   0.57610   Biso      1.000     C          0.685519  
         C60       1.0000    0.81749   0.17014   0.97280   Biso      1.000     C          -0.208412           
         C61       1.0000    0.77611   0.12204   0.09190   Biso      1.000     C          0.329506  
         C62       1.0000    0.79132   0.12026   0.28580   Biso      1.000     C          -0.183737           
         C63       1.0000    0.75341   0.06923   0.42390   Biso      1.000     C          0.685467  
         C64       1.0000    0.57992   0.59744   0.24277   Biso      1.000     C          0.685335  
         C65       1.0000    0.12026   0.32894   0.71420   Biso      1.000     C          -0.183846           
         C66       1.0000    0.55722   0.54463   0.57477   Biso      1.000     C          0.329571  
         C67       1.0000    0.51584   0.49653   0.69387   Biso      1.000     C          -0.208503           
         C68       1.0000    0.54201   0.54641   0.38087   Biso      1.000     C          -0.18365  
         C69       1.0000    0.68598   0.84918   0.63947   Biso      1.000     C          -0.208449           
         C70       1.0000    0.67926   0.89056   0.75857   Biso      1.000     C          0.329462  
         C71       1.0000    0.66227   0.87535   0.95247   Biso      1.000     C          -0.183673           
         C72       1.0000    0.64915   0.91326   0.09057   Biso      1.000     C          0.685441  
         H1        1.0000    0.83687   0.69393   0.50703   Biso      1.000     H          0.142074  
         H2        1.0000    0.63940   0.80960   0.17370   Biso      1.000     H          0.14209   
         H3        1.0000    0.97273   0.47627   0.84037   Biso      1.000     H          0.142052  
         H4        1.0000    0.30607   0.14293   0.50703   Biso      1.000     H          0.142127  
         H5        1.0000    0.19040   0.82980   0.17370   Biso      1.000     H          0.142088  
         H6        1.0000    0.17020   0.36060   0.17370   Biso      1.000     H          0.142056  
         H7        1.0000    0.85707   0.16313   0.50703   Biso      1.000     H          0.142107  
         H8        1.0000    0.52373   0.49647   0.84037   Biso      1.000     H          0.142159  
         H9        1.0000    0.16313   0.30607   0.49297   Biso      1.000     H          0.142074  
         H10       1.0000    0.50353   0.02727   0.84037   Biso      1.000     H          0.142219  
         H11       1.0000    0.02727   0.52373   0.15963   Biso      1.000     H          0.142052  
         H12       1.0000    0.82980   0.63940   0.82630   Biso      1.000     H          0.142056  
         H13       1.0000    0.80960   0.17020   0.82630   Biso      1.000     H          0.142088  
         H14       1.0000    0.14293   0.83687   0.49297   Biso      1.000     H          0.142107  
         H15       1.0000    0.69393   0.85707   0.49297   Biso      1.000     H          0.142127  
         H16       1.0000    0.49647   0.97273   0.15963   Biso      1.000     H          0.142219  
         H17       1.0000    0.36060   0.19040   0.82630   Biso      1.000     H          0.14209   
         H18       1.0000    0.47627   0.50353   0.15963   Biso      1.000     H          0.142159  
         Mg1       1.0000    0.35150   0.97110   0.86180   Biso      1.000     Mg          1.410458  
         Mg2       1.0000    0.71373   0.01817   0.80487   Biso      1.000     Mg          1.410426  
         Mg3       1.0000    0.98183   0.69557   0.80487   Biso      1.000     Mg          1.410403  
         Mg4       1.0000    0.01817   0.30443   0.19513   Biso      1.000     Mg          1.410403  
         Mg5       1.0000    0.02890   0.38040   0.86180   Biso      1.000     Mg          1.410394  
         Mg6       1.0000    0.61960   0.64850   0.86180   Biso      1.000     Mg          1.410445  
         Mg7       1.0000    0.64850   0.02890   0.13820   Biso      1.000     Mg          1.410458  
         Mg8       1.0000    0.31517   0.36223   0.47153   Biso      1.000     Mg          1.410381  
         Mg9       1.0000    0.68483   0.63777   0.52847   Biso      1.000     Mg          1.410381  
         Mg10      1.0000    0.97110   0.61960   0.13820   Biso      1.000     Mg          1.410394  
         Mg11      1.0000    0.69557   0.71373   0.19513   Biso      1.000     Mg          1.410466  
         Mg12      1.0000    0.38040   0.35150   0.13820   Biso      1.000     Mg          1.410445  
         Mg13      1.0000    0.04707   0.68483   0.47153   Biso      1.000     Mg          1.41048   
         Mg14      1.0000    0.95293   0.31517   0.52847   Biso      1.000     Mg          1.41048   
         Mg15      1.0000    0.63777   0.95293   0.47153   Biso      1.000     Mg          1.410328  
         Mg16      1.0000    0.30443   0.28627   0.80487   Biso      1.000     Mg          1.410466  
         Mg17      1.0000    0.28627   0.98183   0.19513   Biso      1.000     Mg          1.410426  
         Mg18      1.0000    0.36223   0.04707   0.52847   Biso      1.000     Mg          1.410328  
         O1        1.0000    0.32522   0.29556   0.36200   Biso      1.000     O          -0.735424           
         O2        1.0000    0.30284   0.22880   0.59760   Biso      1.000     O          -0.631608           
         O3        1.0000    0.35390   0.27440   0.00230   Biso      1.000     O          -0.808341           
         O4        1.0000    0.70444   0.02966   0.36200   Biso      1.000     O          -0.735411           
         O5        1.0000    0.41283   0.02057   0.66437   Biso      1.000     O          -0.808309           
         O6        1.0000    0.40737   0.96951   0.06907   Biso      1.000     O          -0.631643           
         O7        1.0000    0.02966   0.32522   0.63800   Biso      1.000     O          -0.735426           
         O8        1.0000    0.36299   0.99189   0.30467   Biso      1.000     O          -0.735345           
         O9        1.0000    0.74071   0.63617   0.73573   Biso      1.000     O          -0.631603           
         O10       1.0000    0.07404   0.30284   0.40240   Biso      1.000     O          -0.631647           
         O11       1.0000    0.07950   0.35390   0.99770   Biso      1.000     O          -0.808333           
         O12       1.0000    0.68723   0.94107   0.66897   Biso      1.000     O          -0.808284           
         O13       1.0000    0.63617   0.89547   0.26427   Biso      1.000     O          -0.631579           
         O14       1.0000    0.65855   0.96223   0.02867   Biso      1.000     O          -0.735418           
         O15       1.0000    0.99189   0.62889   0.69533   Biso      1.000     O          -0.73542  
         O16       1.0000    0.96951   0.56213   0.93093   Biso      1.000     O          -0.631642           
         O17       1.0000    0.77120   0.07404   0.59760   Biso      1.000     O          -0.631625           
         O18       1.0000    0.02057   0.60773   0.33563   Biso      1.000     O          -0.808321           
         O19       1.0000    0.69633   0.65855   0.97133   Biso      1.000     O          -0.735324           
         O20       1.0000    0.74617   0.68723   0.33103   Biso      1.000     O          -0.808383           
         O21       1.0000    0.72560   0.07950   0.00230   Biso      1.000     O          -0.80835  
         O22       1.0000    0.67478   0.70444   0.63800   Biso      1.000     O          -0.735424           
         O23       1.0000    0.56213   0.59263   0.06907   Biso      1.000     O          -0.631539           
         O24       1.0000    0.69716   0.77120   0.40240   Biso      1.000     O          -0.631608           
         O25       1.0000    0.64610   0.72560   0.99770   Biso      1.000     O          -0.808341           
         O26       1.0000    0.25383   0.31277   0.66897   Biso      1.000     O          -0.808383           
         O27       1.0000    0.25929   0.36383   0.26427   Biso      1.000     O          -0.631603           
         O28       1.0000    0.30367   0.34145   0.02867   Biso      1.000     O          -0.735324           
         O29       1.0000    0.34145   0.03777   0.97133   Biso      1.000     O          -0.735418           
         O30       1.0000    0.36383   0.10453   0.73573   Biso      1.000     O          -0.631579           
         O31       1.0000    0.31277   0.05893   0.33103   Biso      1.000     O          -0.808284           
         O32       1.0000    0.58717   0.97943   0.33563   Biso      1.000     O          -0.808309           
         O33       1.0000    0.59263   0.03049   0.93093   Biso      1.000     O          -0.631643           
         O34       1.0000    0.63701   0.00811   0.69533   Biso      1.000     O          -0.735345           
         O35       1.0000    0.00811   0.37111   0.30467   Biso      1.000     O          -0.73542  
         O36       1.0000    0.03049   0.43787   0.06907   Biso      1.000     O          -0.631642           
         O37       1.0000    0.97943   0.39227   0.66437   Biso      1.000     O          -0.808321           
         O38       1.0000    0.92050   0.64610   0.00230   Biso      1.000     O          -0.808333           
         O39       1.0000    0.92596   0.69716   0.59760   Biso      1.000     O          -0.631647           
         O40       1.0000    0.97034   0.67478   0.36200   Biso      1.000     O          -0.735426           
         O41       1.0000    0.29556   0.97034   0.63800   Biso      1.000     O          -0.735411           
         O42       1.0000    0.22880   0.92596   0.40240   Biso      1.000     O          -0.631625           
         O43       1.0000    0.27440   0.92050   0.99770   Biso      1.000     O          -0.80835  
         O44       1.0000    0.05893   0.74617   0.66897   Biso      1.000     O          -0.808295           
         O45       1.0000    0.10453   0.74071   0.26427   Biso      1.000     O          -0.631712           
         O46       1.0000    0.03777   0.69633   0.02867   Biso      1.000     O          -0.735496           
         O47       1.0000    0.96223   0.30367   0.97133   Biso      1.000     O          -0.735496           
         O48       1.0000    0.89547   0.25929   0.73573   Biso      1.000     O          -0.631712           
         O49       1.0000    0.94107   0.25383   0.33103   Biso      1.000     O          -0.808295           
         O50       1.0000    0.43787   0.40737   0.93093   Biso      1.000     O          -0.631539           
         O51       1.0000    0.37111   0.36299   0.69533   Biso      1.000     O          -0.735439           
         O52       1.0000    0.62889   0.63701   0.30467   Biso      1.000     O          -0.735439           
         O53       1.0000    0.60773   0.58717   0.66437   Biso      1.000     O          -0.808382           
         O54       1.0000    0.39227   0.41283   0.33563   Biso      1.000     O          -0.808382 