
##########################################################################
#               Crystallographic Information Format file
#               Produced by PyCifRW module
#
#  This is a CIF file.  CIF has been adopted by the International
#  Union of Crystallography as the standard for data archiving and
#  transmission.
#
#  For information on this file format, follow the CIF links at
#  http://www.iucr.org
##########################################################################

data_image0

_cell_length_a                          25.8735
_cell_length_b                          25.8735
_cell_length_c                          6.8486
_cell_angle_alpha                       90
_cell_angle_beta                        90
_cell_angle_gamma                       120
_symmetry_space_group_name_H-M          'P 1'
_symmetry_int_tables_number             1
loop_
  _symmetry_equiv_pos_as_xyz
         'x, y, z' 
loop_
  _atom_site_label
  _atom_site_occupancy
  _atom_site_fract_x
  _atom_site_fract_y
  _atom_site_fract_z
  _atom_site_thermal_displace_type
  _atom_site_B_iso_or_equiv
  _atom_site_type_symbol
  _atom_site_charge
         C1        1.0000    0.32017   0.10943   0.24253   Biso      1.000     C          0.290903  
         C2        1.0000    0.15173   0.83567   0.64227   Biso      1.000     C          -0.184531           
         C3        1.0000    0.10943   0.78927   0.75747   Biso      1.000     C          0.29062899999999997           
         C4        1.0000    0.12643   0.78797   0.95647   Biso      1.000     C          -0.14935199999999998          
         C5        1.0000    0.08573   0.73817   0.09527   Biso      1.000     C          0.650854  
         C6        1.0000    0.33847   0.12643   0.04353   Biso      1.000     C          -0.149109           
         C7        1.0000    0.98273   0.48507   0.69107   Biso      1.000     C          -0.184686           
         C8        1.0000    0.84827   0.16433   0.35773   Biso      1.000     C          -0.18466  
         C9        1.0000    0.58093   0.59517   0.23807   Biso      1.000     C          0.646465  
         C10       1.0000    0.54023   0.54537   0.37687   Biso      1.000     C          -0.15163900000000002          
         C11       1.0000    0.48507   0.50233   0.30893   Biso      1.000     C          -0.182887           
         C12       1.0000    0.44277   0.45593   0.42413   Biso      1.000     C          0.28993   
         C13       1.0000    0.45977   0.45463   0.62313   Biso      1.000     C          -0.147303           
         C14       1.0000    0.41907   0.40483   0.76193   Biso      1.000     C          0.650948  
         C15       1.0000    0.55723   0.54407   0.57587   Biso      1.000     C          0.288526  
         C16       1.0000    0.98683   0.44277   0.57587   Biso      1.000     C          0.291981  
         C17       1.0000    0.89057   0.21073   0.24253   Biso      1.000     C          0.290815  
         C18       1.0000    0.87357   0.21203   0.04353   Biso      1.000     C          -0.149417           
         C19       1.0000    0.91427   0.26183   0.90473   Biso      1.000     C          0.650886  
         C20       1.0000    0.21203   0.33847   0.95647   Biso      1.000     C          -0.148951           
         C21       1.0000    0.20690   0.87870   0.71020   Biso      1.000     C          -0.14840799999999998          
         C22       1.0000    0.49767   0.98273   0.30893   Biso      1.000     C          -0.18463800000000002          
         C23       1.0000    0.54407   0.98683   0.42413   Biso      1.000     C          0.29149899999999995           
         C24       1.0000    0.54537   0.00513   0.62313   Biso      1.000     C          -0.148643           
         C25       1.0000    0.59517   0.01423   0.76193   Biso      1.000     C          0.65033   
         C26       1.0000    0.22390   0.87740   0.90920   Biso      1.000     C          0.29204   
         C27       1.0000    0.18160   0.83100   0.02440   Biso      1.000     C          -0.184279           
         C28       1.0000    0.21073   0.32017   0.75747   Biso      1.000     C          0.291544  
         C29       1.0000    0.16433   0.31607   0.64227   Biso      1.000     C          -0.18454600000000002          
         C30       1.0000    0.50233   0.01727   0.69107   Biso      1.000     C          -0.184667           
         C31       1.0000    0.83100   0.64940   0.97560   Biso      1.000     C          -0.185443           
         C32       1.0000    0.87740   0.65350   0.09080   Biso      1.000     C          0.298325  
         C33       1.0000    0.87870   0.67180   0.28980   Biso      1.000     C          -0.149642           
         C34       1.0000    0.92850   0.68090   0.42860   Biso      1.000     C          0.650638  
         C35       1.0000    0.51493   0.49767   0.69107   Biso      1.000     C          -0.18491300000000002          
         C36       1.0000    0.24760   0.92850   0.57140   Biso      1.000     C          0.650736  
         C37       1.0000    0.00513   0.45977   0.37687   Biso      1.000     C          -0.148287           
         C38       1.0000    0.67180   0.79310   0.71020   Biso      1.000     C          -0.150948           
         C39       1.0000    0.01727   0.51493   0.30893   Biso      1.000     C          -0.184557           
         C40       1.0000    0.01317   0.55723   0.42413   Biso      1.000     C          0.290699  
         C41       1.0000    0.99487   0.54023   0.62313   Biso      1.000     C          -0.149362           
         C42       1.0000    0.98577   0.58093   0.76193   Biso      1.000     C          0.650894  
         C43       1.0000    0.78927   0.67983   0.24253   Biso      1.000     C          0.28965599999999997           
         C44       1.0000    0.83567   0.68393   0.35773   Biso      1.000     C          -0.175768           
         C45       1.0000    0.31607   0.15173   0.35773   Biso      1.000     C          -0.184697           
         C46       1.0000    0.34757   0.08573   0.90473   Biso      1.000     C          0.650716  
         C47       1.0000    0.35060   0.18160   0.97560   Biso      1.000     C          -0.18466300000000002          
         C48       1.0000    0.34650   0.22390   0.09080   Biso      1.000     C          0.29144200000000003           
         C49       1.0000    0.32820   0.20690   0.28980   Biso      1.000     C          -0.148728           
         C50       1.0000    0.31910   0.24760   0.42860   Biso      1.000     C          0.6503899999999999  
         C51       1.0000    0.40483   0.98577   0.23807   Biso      1.000     C          0.6505920000000001  
         C52       1.0000    0.45463   0.99487   0.37687   Biso      1.000     C          -0.149223           
         C53       1.0000    0.45593   0.01317   0.57587   Biso      1.000     C          0.290718  
         C54       1.0000    0.78797   0.66153   0.04353   Biso      1.000     C          -0.140735           
         C55       1.0000    0.68090   0.75240   0.57140   Biso      1.000     C          0.6452260000000001  
         C56       1.0000    0.26183   0.34757   0.09527   Biso      1.000     C          0.6506890000000001  
         C57       1.0000    0.73817   0.65243   0.90473   Biso      1.000     C          0.6422180000000001  
         C58       1.0000    0.81840   0.16900   0.97560   Biso      1.000     C          -0.184687           
         C59       1.0000    0.77610   0.12260   0.09080   Biso      1.000     C          0.291588  
         C60       1.0000    0.79310   0.12130   0.28980   Biso      1.000     C          -0.148695           
         C61       1.0000    0.75240   0.07150   0.42860   Biso      1.000     C          0.650516  
         C62       1.0000    0.07150   0.31910   0.57140   Biso      1.000     C          0.650795  
         C63       1.0000    0.12130   0.32820   0.71020   Biso      1.000     C          -0.14915899999999999          
         C64       1.0000    0.12260   0.34650   0.90920   Biso      1.000     C          0.291033  
         C65       1.0000    0.65350   0.77610   0.90920   Biso      1.000     C          0.292031  
         C66       1.0000    0.68393   0.84827   0.64227   Biso      1.000     C          -0.185453           
         C67       1.0000    0.67983   0.89057   0.75747   Biso      1.000     C          0.290079  
         C68       1.0000    0.66153   0.87357   0.95647   Biso      1.000     C          -0.148923           
         C69       1.0000    0.65243   0.91427   0.09527   Biso      1.000     C          0.6505529999999999  
         C70       1.0000    0.64940   0.81840   0.02440   Biso      1.000     C          -0.185818           
         C71       1.0000    0.01423   0.41907   0.23807   Biso      1.000     C          0.650914  
         C72       1.0000    0.16900   0.35060   0.02440   Biso      1.000     C          -0.184684           
         Co1       1.0000    0.62140   0.65100   0.84900   Biso      1.000     Co          0.942731  
         Co2       1.0000    0.95473   0.31767   0.51567   Biso      1.000     Co          0.947042  
         Co3       1.0000    0.28807   0.98433   0.18233   Biso      1.000     Co          0.946391  
         Co4       1.0000    0.37860   0.34900   0.15100   Biso      1.000     Co          0.9443520000000001  
         Co5       1.0000    0.34900   0.97040   0.84900   Biso      1.000     Co          0.9473239999999999  
         Co6       1.0000    0.36293   0.04527   0.51567   Biso      1.000     Co          0.9480200000000001  
         Co7       1.0000    0.04527   0.68233   0.48433   Biso      1.000     Co          0.9485950000000001  
         Co8       1.0000    0.71193   0.01567   0.81767   Biso      1.000     Co          0.9459    
         Co9       1.0000    0.69627   0.71193   0.18233   Biso      1.000     Co          0.937039  
         Co10      1.0000    0.65100   0.02960   0.15100   Biso      1.000     Co          0.9452    
         Co11      1.0000    0.31767   0.36293   0.48433   Biso      1.000     Co          0.943449  
         Co12      1.0000    0.02960   0.37860   0.84900   Biso      1.000     Co          0.946417  
         Co13      1.0000    0.68233   0.63707   0.51567   Biso      1.000     Co          0.802988  
         Co14      1.0000    0.97040   0.62140   0.15100   Biso      1.000     Co          0.944369  
         Co15      1.0000    0.01567   0.30373   0.18233   Biso      1.000     Co          0.9481629999999999  
         Co16      1.0000    0.63707   0.95473   0.48433   Biso      1.000     Co          0.946772  
         Co17      1.0000    0.30373   0.28807   0.81767   Biso      1.000     Co          0.94473   
         Co18      1.0000    0.98433   0.69627   0.81767   Biso      1.000     Co          0.9427610000000001  
         H1        1.0000    0.52463   0.50027   0.83467   Biso      1.000     H          0.14163699999999999           
         H2        1.0000    0.97563   0.47537   0.83467   Biso      1.000     H          0.1423    
         H3        1.0000    0.16640   0.35770   0.16800   Biso      1.000     H          0.14213599999999998           
         H4        1.0000    0.83307   0.69103   0.50133   Biso      1.000     H          0.143103  
         H5        1.0000    0.30897   0.14203   0.50133   Biso      1.000     H          0.142056  
         H6        1.0000    0.19130   0.83360   0.16800   Biso      1.000     H          0.142326  
         H7        1.0000    0.85797   0.16693   0.50133   Biso      1.000     H          0.142151  
         H8        1.0000    0.16693   0.30897   0.49867   Biso      1.000     H          0.14215   
         H9        1.0000    0.49973   0.02437   0.83467   Biso      1.000     H          0.142097  
         H10       1.0000    0.80870   0.16640   0.83200   Biso      1.000     H          0.14221199999999998           
         H11       1.0000    0.14203   0.83307   0.49867   Biso      1.000     H          0.14207   
         H12       1.0000    0.69103   0.85797   0.49867   Biso      1.000     H          0.141824  
         H13       1.0000    0.83360   0.64230   0.83200   Biso      1.000     H          0.14313   
         H14       1.0000    0.50027   0.97563   0.16533   Biso      1.000     H          0.142201  
         H15       1.0000    0.02437   0.52463   0.16533   Biso      1.000     H          0.142191  
         H16       1.0000    0.35770   0.19130   0.83200   Biso      1.000     H          0.142192  
         H17       1.0000    0.47537   0.49973   0.16533   Biso      1.000     H          0.142258  
         H18       1.0000    0.64230   0.80870   0.16800   Biso      1.000     H          0.141819  
         O1        1.0000    0.99537   0.62923   0.69703   Biso      1.000     O          -0.584104           
         O2        1.0000    0.43757   0.40683   0.93203   Biso      1.000     O          -0.5364899999999999           
         O3        1.0000    0.37077   0.36613   0.69703   Biso      1.000     O          -0.582529           
         O4        1.0000    0.32870   0.29590   0.36370   Biso      1.000     O          -0.582725           
         O5        1.0000    0.03280   0.32870   0.63630   Biso      1.000     O          -0.5835560000000001           
         O6        1.0000    0.07350   0.30260   0.40130   Biso      1.000     O          -0.536242           
         O7        1.0000    0.30260   0.22910   0.59870   Biso      1.000     O          -0.536121           
         O8        1.0000    0.08190   0.35770   0.99780   Biso      1.000     O          -0.5784600000000001           
         O9        1.0000    0.72420   0.08190   0.00220   Biso      1.000     O          -0.578488           
         O10       1.0000    0.77090   0.07350   0.59870   Biso      1.000     O          -0.5366529999999999           
         O11       1.0000    0.70410   0.03280   0.36370   Biso      1.000     O          -0.583188           
         O12       1.0000    0.35770   0.27580   0.00220   Biso      1.000     O          -0.57827  
         O13       1.0000    0.69103   0.94247   0.66887   Biso      1.000     O          -0.578279           
         O14       1.0000    0.41523   0.02437   0.66447   Biso      1.000     O          -0.578362           
         O15       1.0000    0.63593   0.89577   0.26537   Biso      1.000     O          -0.536359           
         O16       1.0000    0.69947   0.66203   0.96963   Biso      1.000     O          -0.580073           
         O17       1.0000    0.39087   0.41523   0.33553   Biso      1.000     O          -0.577014           
         O18       1.0000    0.74857   0.69103   0.33113   Biso      1.000     O          -0.5426989999999999           
         O19       1.0000    0.66203   0.96257   0.03037   Biso      1.000     O          -0.583429           
         O20       1.0000    0.40683   0.96927   0.06797   Biso      1.000     O          -0.535825           
         O21       1.0000    0.02437   0.60913   0.33553   Biso      1.000     O          -0.57767  
         O22       1.0000    0.96927   0.56243   0.93203   Biso      1.000     O          -0.535499           
         O23       1.0000    0.36613   0.99537   0.30297   Biso      1.000     O          -0.583667           
         O24       1.0000    0.74017   0.63593   0.73463   Biso      1.000     O          -0.494883           
         O25       1.0000    0.36407   0.10423   0.73463   Biso      1.000     O          -0.5362210000000001           
         O26       1.0000    0.30897   0.05753   0.33113   Biso      1.000     O          -0.578309           
         O27       1.0000    0.33797   0.03743   0.96963   Biso      1.000     O          -0.5835739999999999           
         O28       1.0000    0.00463   0.37077   0.30297   Biso      1.000     O          -0.583498           
         O29       1.0000    0.03073   0.43757   0.06797   Biso      1.000     O          -0.5364770000000001           
         O30       1.0000    0.97563   0.39087   0.66447   Biso      1.000     O          -0.578643           
         O31       1.0000    0.64230   0.72420   0.99780   Biso      1.000     O          -0.58391  
         O32       1.0000    0.69740   0.77090   0.40130   Biso      1.000     O          -0.532263           
         O33       1.0000    0.67130   0.70410   0.63630   Biso      1.000     O          -0.565809           
         O34       1.0000    0.25143   0.30897   0.66887   Biso      1.000     O          -0.577932           
         O35       1.0000    0.25983   0.36407   0.26537   Biso      1.000     O          -0.536413           
         O36       1.0000    0.29590   0.96720   0.63630   Biso      1.000     O          -0.5832890000000001           
         O37       1.0000    0.22910   0.92650   0.40130   Biso      1.000     O          -0.536533           
         O38       1.0000    0.27580   0.91810   0.99780   Biso      1.000     O          -0.578624           
         O39       1.0000    0.03743   0.69947   0.03037   Biso      1.000     O          -0.583232           
         O40       1.0000    0.30053   0.33797   0.03037   Biso      1.000     O          -0.583429           
         O41       1.0000    0.59317   0.03073   0.93203   Biso      1.000     O          -0.536151           
         O42       1.0000    0.63387   0.00463   0.69703   Biso      1.000     O          -0.583046           
         O43       1.0000    0.96257   0.30053   0.96963   Biso      1.000     O          -0.583834           
         O44       1.0000    0.89577   0.25983   0.73463   Biso      1.000     O          -0.536038           
         O45       1.0000    0.94247   0.25143   0.33113   Biso      1.000     O          -0.578334           
         O46       1.0000    0.91810   0.64230   0.00220   Biso      1.000     O          -0.5756359999999999           
         O47       1.0000    0.92650   0.69740   0.59870   Biso      1.000     O          -0.5367390000000001           
         O48       1.0000    0.96720   0.67130   0.36370   Biso      1.000     O          -0.582825           
         O49       1.0000    0.05753   0.74857   0.66887   Biso      1.000     O          -0.577625           
         O50       1.0000    0.10423   0.74017   0.26537   Biso      1.000     O          -0.535834           
         O51       1.0000    0.62923   0.63387   0.30297   Biso      1.000     O          -0.541941           
         O52       1.0000    0.56243   0.59317   0.06797   Biso      1.000     O          -0.529931           
         O53       1.0000    0.58477   0.97563   0.33553   Biso      1.000     O          -0.578574           
         O54       1.0000    0.60913   0.58477   0.66447   Biso      1.000     O          -0.5425449999999999 