
##########################################################################
#               Crystallographic Information Format file
#               Produced by PyCifRW module
#
#  This is a CIF file.  CIF has been adopted by the International
#  Union of Crystallography as the standard for data archiving and
#  transmission.
#
#  For information on this file format, follow the CIF links at
#  http://www.iucr.org
##########################################################################

data_image0

_cell_length_a                          25.8978
_cell_length_b                          25.8978
_cell_length_c                          6.2785
_cell_angle_alpha                       90
_cell_angle_beta                        90
_cell_angle_gamma                       120
_symmetry_space_group_name_H-M          'P 1'
_symmetry_int_tables_number             1
loop_
  _symmetry_equiv_pos_as_xyz
         'x, y, z' 
loop_
  _atom_site_label
  _atom_site_occupancy
  _atom_site_fract_x
  _atom_site_fract_y
  _atom_site_fract_z
  _atom_site_thermal_displace_type
  _atom_site_B_iso_or_equiv
  _atom_site_type_symbol
  _atom_site_charge
         C1        1.0000    0.16253   0.31207   0.64257   Biso      1.000     C          -0.041319999999999996         
         C2        1.0000    0.00443   0.45847   0.36257   Biso      1.000     C          -0.131574           
         C3        1.0000    0.00493   0.41887   0.18167   Biso      1.000     C          0.6493939999999999  
         C4        1.0000    0.31207   0.14953   0.35743   Biso      1.000     C          -0.04442  
         C5        1.0000    0.31877   0.11083   0.24263   Biso      1.000     C          0.268096  
         C6        1.0000    0.33777   0.12513   0.02923   Biso      1.000     C          -0.128771           
         C7        1.0000    0.33827   0.08553   0.84833   Biso      1.000     C          0.649371  
         C8        1.0000    0.64540   0.81620   0.02410   Biso      1.000     C          -0.043367           
         C9        1.0000    0.65210   0.77750   0.90930   Biso      1.000     C          0.26960500000000004           
         C10       1.0000    0.67110   0.79180   0.69590   Biso      1.000     C          -0.127106           
         C11       1.0000    0.98543   0.44417   0.57597   Biso      1.000     C          0.268698  
         C12       1.0000    0.67160   0.75220   0.51500   Biso      1.000     C          0.648787  
         C13       1.0000    0.20793   0.31877   0.75737   Biso      1.000     C          0.26962600000000003           
         C14       1.0000    0.21263   0.33777   0.97077   Biso      1.000     C          -0.13058599999999998          
         C15       1.0000    0.25273   0.33827   0.15167   Biso      1.000     C          0.649569  
         C16       1.0000    0.49587   0.97873   0.30923   Biso      1.000     C          -0.040382           
         C17       1.0000    0.54127   0.98543   0.42403   Biso      1.000     C          0.26602600000000004           
         C18       1.0000    0.54597   0.00443   0.63743   Biso      1.000     C          -0.128639           
         C19       1.0000    0.58607   0.00493   0.81833   Biso      1.000     C          0.649487  
         C20       1.0000    0.82920   0.64540   0.97590   Biso      1.000     C          -0.041968           
         C21       1.0000    0.87460   0.65210   0.09070   Biso      1.000     C          0.270244  
         C22       1.0000    0.45873   0.01457   0.57597   Biso      1.000     C          0.268611  
         C23       1.0000    0.87930   0.67110   0.30410   Biso      1.000     C          -0.13584100000000002          
         C24       1.0000    0.97873   0.48287   0.69077   Biso      1.000     C          -0.042462           
         C25       1.0000    0.20820   0.87930   0.69590   Biso      1.000     C          -0.130604           
         C26       1.0000    0.45403   0.99557   0.36257   Biso      1.000     C          -0.132358           
         C27       1.0000    0.41393   0.99507   0.18167   Biso      1.000     C          0.6496890000000001  
         C28       1.0000    0.83747   0.68793   0.35743   Biso      1.000     C          -0.044269           
         C29       1.0000    0.79207   0.68123   0.24263   Biso      1.000     C          0.267959  
         C30       1.0000    0.78737   0.66223   0.02923   Biso      1.000     C          -0.132719           
         C31       1.0000    0.74727   0.66173   0.84833   Biso      1.000     C          0.649651  
         C32       1.0000    0.17080   0.35460   0.02410   Biso      1.000     C          -0.041345           
         C33       1.0000    0.12540   0.34790   0.90930   Biso      1.000     C          0.268464  
         C34       1.0000    0.12070   0.32890   0.69590   Biso      1.000     C          -0.131935           
         C35       1.0000    0.24780   0.91940   0.51500   Biso      1.000     C          0.649746  
         C36       1.0000    0.08060   0.32840   0.51500   Biso      1.000     C          0.64985   
         C37       1.0000    0.55583   0.54127   0.57597   Biso      1.000     C          0.26914899999999997           
         C38       1.0000    0.54153   0.54597   0.36257   Biso      1.000     C          -0.138274           
         C39       1.0000    0.58113   0.58607   0.18167   Biso      1.000     C          0.651199  
         C40       1.0000    0.85047   0.16253   0.35743   Biso      1.000     C          -0.043657           
         C41       1.0000    0.88917   0.20793   0.24263   Biso      1.000     C          0.267007  
         C42       1.0000    0.87487   0.21263   0.02923   Biso      1.000     C          -0.130908           
         C43       1.0000    0.91447   0.25273   0.84833   Biso      1.000     C          0.6498520000000001  
         C44       1.0000    0.18380   0.82920   0.02410   Biso      1.000     C          -0.041339           
         C45       1.0000    0.22250   0.87460   0.90930   Biso      1.000     C          0.26863200000000004           
         C46       1.0000    0.51713   0.49587   0.69077   Biso      1.000     C          -0.042395999999999996         
         C47       1.0000    0.91940   0.67160   0.48500   Biso      1.000     C          0.65053   
         C48       1.0000    0.50413   0.02127   0.69077   Biso      1.000     C          -0.042683           
         C49       1.0000    0.68793   0.85047   0.64257   Biso      1.000     C          -0.043703           
         C50       1.0000    0.81620   0.17080   0.97590   Biso      1.000     C          -0.039829           
         C51       1.0000    0.75220   0.08060   0.48500   Biso      1.000     C          0.649814  
         C52       1.0000    0.14953   0.83747   0.64257   Biso      1.000     C          -0.043616           
         C53       1.0000    0.68123   0.88917   0.75737   Biso      1.000     C          0.26711799999999997           
         C54       1.0000    0.66223   0.87487   0.97077   Biso      1.000     C          -0.128735           
         C55       1.0000    0.66173   0.91447   0.15167   Biso      1.000     C          0.6492319999999999  
         C56       1.0000    0.41887   0.41393   0.81833   Biso      1.000     C          0.6515449999999999  
         C57       1.0000    0.45847   0.45403   0.63743   Biso      1.000     C          -0.13980599999999999          
         C58       1.0000    0.44417   0.45873   0.42403   Biso      1.000     C          0.26731   
         C59       1.0000    0.02127   0.51713   0.30923   Biso      1.000     C          -0.041496           
         C60       1.0000    0.79180   0.12070   0.30410   Biso      1.000     C          -0.131977           
         C61       1.0000    0.48287   0.50413   0.30923   Biso      1.000     C          -0.043283999999999996         
         C62       1.0000    0.01457   0.55583   0.42403   Biso      1.000     C          0.266465  
         C63       1.0000    0.77750   0.12540   0.09070   Biso      1.000     C          0.270624  
         C64       1.0000    0.99507   0.58113   0.81833   Biso      1.000     C          0.649457  
         C65       1.0000    0.32840   0.24780   0.48500   Biso      1.000     C          0.649019  
         C66       1.0000    0.32890   0.20820   0.30410   Biso      1.000     C          -0.126946           
         C67       1.0000    0.11083   0.79207   0.75737   Biso      1.000     C          0.269336  
         C68       1.0000    0.99557   0.54153   0.63743   Biso      1.000     C          -0.12897899999999998          
         C69       1.0000    0.08553   0.74727   0.15167   Biso      1.000     C          0.648953  
         C70       1.0000    0.34790   0.22250   0.09070   Biso      1.000     C          0.26821300000000003           
         C71       1.0000    0.12513   0.78737   0.97077   Biso      1.000     C          -0.128082           
         C72       1.0000    0.35460   0.18380   0.97590   Biso      1.000     C          -0.042376           
         Cu1       1.0000    0.01583   0.29509   0.15823   Biso      1.000     Cu          0.932157  
         Cu2       1.0000    0.72073   0.01583   0.84177   Biso      1.000     Cu          0.928499  
         Cu3       1.0000    0.34916   0.96176   0.82490   Biso      1.000     Cu          0.931322  
         Cu4       1.0000    0.05407   0.68249   0.50843   Biso      1.000     Cu          0.9347639999999999  
         Cu5       1.0000    0.65084   0.03824   0.17510   Biso      1.000     Cu          0.928867  
         Cu6       1.0000    0.94593   0.31751   0.49157   Biso      1.000     Cu          0.9284020000000001  
         Cu7       1.0000    0.03824   0.38740   0.82490   Biso      1.000     Cu          0.9357059999999999  
         Cu8       1.0000    0.37157   0.05407   0.49157   Biso      1.000     Cu          0.936718  
         Cu9       1.0000    0.70491   0.72073   0.15823   Biso      1.000     Cu          0.9330299999999999  
         Cu10      1.0000    0.68249   0.62843   0.49157   Biso      1.000     Cu          0.937113  
         Cu11      1.0000    0.96176   0.61260   0.17510   Biso      1.000     Cu          0.929824  
         Cu12      1.0000    0.38740   0.34916   0.17510   Biso      1.000     Cu          0.929479  
         Cu13      1.0000    0.61260   0.65084   0.82490   Biso      1.000     Cu          0.9292860000000001  
         Cu14      1.0000    0.98417   0.70491   0.84177   Biso      1.000     Cu          0.9288379999999999  
         Cu15      1.0000    0.62843   0.94593   0.50843   Biso      1.000     Cu          0.9352940000000001  
         Cu16      1.0000    0.27927   0.98417   0.15823   Biso      1.000     Cu          0.9299700000000001  
         Cu17      1.0000    0.29509   0.27927   0.84177   Biso      1.000     Cu          0.936142  
         Cu18      1.0000    0.31751   0.37157   0.50843   Biso      1.000     Cu          0.936061  
         O1        1.0000    0.03293   0.72067   0.09317   Biso      1.000     O          -0.599428           
         O2        1.0000    0.10783   0.73107   0.29997   Biso      1.000     O          -0.506131           
         O3        1.0000    0.02907   0.61143   0.34523   Biso      1.000     O          -0.5633630000000001           
         O4        1.0000    0.58237   0.97093   0.34523   Biso      1.000     O          -0.562133           
         O5        1.0000    0.06440   0.28990   0.36670   Biso      1.000     O          -0.509617           
         O6        1.0000    0.08430   0.36240   0.98810   Biso      1.000     O          -0.562645           
         O7        1.0000    0.95657   0.55883   0.96663   Biso      1.000     O          -0.510419           
         O8        1.0000    0.02107   0.63373   0.75983   Biso      1.000     O          -0.600448           
         O9        1.0000    0.60227   0.04343   0.96663   Biso      1.000     O          -0.5114609999999999           
         O10       1.0000    0.05400   0.35440   0.57350   Biso      1.000     O          -0.600511           
         O11       1.0000    0.72067   0.68773   0.90683   Biso      1.000     O          -0.599767           
         O12       1.0000    0.73107   0.62323   0.70003   Biso      1.000     O          -0.511179           
         O13       1.0000    0.75097   0.69573   0.32143   Biso      1.000     O          -0.565049           
         O14       1.0000    0.05523   0.75097   0.67857   Biso      1.000     O          -0.566017           
         O15       1.0000    0.91570   0.63760   0.01190   Biso      1.000     O          -0.570326           
         O16       1.0000    0.93560   0.71010   0.63330   Biso      1.000     O          -0.508102           
         O17       1.0000    0.36240   0.27810   0.01190   Biso      1.000     O          -0.569441           
         O18       1.0000    0.94600   0.64560   0.42650   Biso      1.000     O          -0.601634           
         O19       1.0000    0.38733   0.02107   0.24017   Biso      1.000     O          -0.5998560000000001           
         O20       1.0000    0.39773   0.95657   0.03337   Biso      1.000     O          -0.5038279999999999           
         O21       1.0000    0.41763   0.02907   0.65477   Biso      1.000     O          -0.57091  
         O22       1.0000    0.28990   0.22550   0.63330   Biso      1.000     O          -0.507108           
         O23       1.0000    0.35440   0.30040   0.42650   Biso      1.000     O          -0.599919           
         O24       1.0000    0.61267   0.97893   0.75983   Biso      1.000     O          -0.599877           
         O25       1.0000    0.61143   0.58237   0.65477   Biso      1.000     O          -0.575271           
         O26       1.0000    0.30427   0.05523   0.32143   Biso      1.000     O          -0.569257           
         O27       1.0000    0.37677   0.10783   0.70003   Biso      1.000     O          -0.5058560000000001           
         O28       1.0000    0.31227   0.03293   0.90683   Biso      1.000     O          -0.601196           
         O29       1.0000    0.72190   0.08430   0.01190   Biso      1.000     O          -0.571281           
         O30       1.0000    0.36627   0.38733   0.75983   Biso      1.000     O          -0.60336  
         O31       1.0000    0.97893   0.36627   0.24017   Biso      1.000     O          -0.599692           
         O32       1.0000    0.04343   0.44117   0.03337   Biso      1.000     O          -0.503955           
         O33       1.0000    0.97093   0.38857   0.65477   Biso      1.000     O          -0.571689           
         O34       1.0000    0.77450   0.06440   0.63330   Biso      1.000     O          -0.508835           
         O35       1.0000    0.69960   0.05400   0.42650   Biso      1.000     O          -0.601262           
         O36       1.0000    0.44117   0.39773   0.96663   Biso      1.000     O          -0.507598           
         O37       1.0000    0.63760   0.72190   0.98810   Biso      1.000     O          -0.5716220000000001           
         O38       1.0000    0.71010   0.77450   0.36670   Biso      1.000     O          -0.507572           
         O39       1.0000    0.30040   0.94600   0.57350   Biso      1.000     O          -0.600999           
         O40       1.0000    0.22550   0.93560   0.36670   Biso      1.000     O          -0.509882           
         O41       1.0000    0.27810   0.91570   0.98810   Biso      1.000     O          -0.564966           
         O42       1.0000    0.64560   0.69960   0.57350   Biso      1.000     O          -0.600719           
         O43       1.0000    0.38857   0.41763   0.34523   Biso      1.000     O          -0.5721890000000001           
         O44       1.0000    0.69573   0.94477   0.67857   Biso      1.000     O          -0.5683520000000001           
         O45       1.0000    0.24903   0.30427   0.67857   Biso      1.000     O          -0.564098           
         O46       1.0000    0.96707   0.27933   0.90683   Biso      1.000     O          -0.6014470000000001           
         O47       1.0000    0.89217   0.26893   0.70003   Biso      1.000     O          -0.505732           
         O48       1.0000    0.94477   0.24903   0.32143   Biso      1.000     O          -0.564867           
         O49       1.0000    0.62323   0.89217   0.29997   Biso      1.000     O          -0.505307           
         O50       1.0000    0.68773   0.96707   0.09317   Biso      1.000     O          -0.601229           
         O51       1.0000    0.26893   0.37677   0.29997   Biso      1.000     O          -0.510225           
         O52       1.0000    0.27933   0.31227   0.09317   Biso      1.000     O          -0.600073           
         O53       1.0000    0.55883   0.60227   0.03337   Biso      1.000     O          -0.510318           
         O54       1.0000    0.63373   0.61267   0.24017   Biso      1.000     O          -0.6020340000000001 