
##########################################################################
#               Crystallographic Information Format file
#               Produced by PyCifRW module
#
#  This is a CIF file.  CIF has been adopted by the International
#  Union of Crystallography as the standard for data archiving and
#  transmission.
#
#  For information on this file format, follow the CIF links at
#  http://www.iucr.org
##########################################################################

data_image0

_cell_length_a                          25.994
_cell_length_b                          25.994
_cell_length_c                          6.8127
_cell_angle_alpha                       90
_cell_angle_beta                        90
_cell_angle_gamma                       120
_symmetry_space_group_name_H-M          'P 1'
_symmetry_int_tables_number             1
loop_
  _symmetry_equiv_pos_as_xyz
         'x, y, z' 
loop_
  _atom_site_label
  _atom_site_occupancy
  _atom_site_fract_x
  _atom_site_fract_y
  _atom_site_fract_z
  _atom_site_thermal_displace_type
  _atom_site_B_iso_or_equiv
  _atom_site_type_symbol
  _atom_site_charge
         C1        1.0000    0.68317   0.83553   0.14173   Biso      1.000     C          -0.198684           
         C2        1.0000    0.78683   0.12587   0.54727   Biso      1.000     C          -0.141188           
         C3        1.0000    0.83553   0.15237   0.85827   Biso      1.000     C          -0.198714           
         C4        1.0000    0.73793   0.08697   0.40787   Biso      1.000     C          0.638131  
         C5        1.0000    0.78883   0.11117   0.74267   Biso      1.000     C          0.303299  
         C6        1.0000    0.65097   0.73793   0.59213   Biso      1.000     C          0.637837  
         C7        1.0000    0.32763   0.12017   0.78607   Biso      1.000     C          -0.141541           
         C8        1.0000    0.21317   0.87413   0.45273   Biso      1.000     C          -0.140954           
         C9        1.0000    0.87783   0.22217   0.59067   Biso      1.000     C          0.303556  
         C10       1.0000    0.92873   0.24637   0.92547   Biso      1.000     C          0.638268  
         C11       1.0000    0.12017   0.79253   0.21393   Biso      1.000     C          -0.1399   
         C12       1.0000    0.16887   0.81903   0.52493   Biso      1.000     C          -0.196944           
         C13       1.0000    0.07127   0.75363   0.07453   Biso      1.000     C          0.633822  
         C14       1.0000    0.12217   0.77783   0.40933   Biso      1.000     C          0.299839  
         C15       1.0000    0.83113   0.18097   0.47507   Biso      1.000     C          -0.199026           
         C16       1.0000    0.34983   0.16887   0.47507   Biso      1.000     C          -0.198934           
         C17       1.0000    0.16447   0.84763   0.14173   Biso      1.000     C          -0.198059           
         C18       1.0000    0.26207   0.91303   0.59213   Biso      1.000     C          0.638141  
         C19       1.0000    0.21117   0.88883   0.25733   Biso      1.000     C          0.304054  
         C20       1.0000    0.91303   0.65097   0.40787   Biso      1.000     C          0.632446  
         C21       1.0000    0.59540   0.57970   0.25880   Biso      1.000     C          0.637877  
         C22       1.0000    0.20747   0.32763   0.21393   Biso      1.000     C          -0.141647           
         C23       1.0000    0.18097   0.34983   0.52493   Biso      1.000     C          -0.19858  
         C24       1.0000    0.24637   0.31763   0.07453   Biso      1.000     C          0.638311  
         C25       1.0000    0.22217   0.34433   0.40933   Biso      1.000     C          0.30351   
         C26       1.0000    0.49780   0.51430   0.80840   Biso      1.000     C          -0.198184           
         C27       1.0000    0.54650   0.54080   0.11940   Biso      1.000     C          -0.1419   
         C28       1.0000    0.84763   0.68317   0.85827   Biso      1.000     C          -0.19925  
         C29       1.0000    0.87413   0.66097   0.54727   Biso      1.000     C          -0.141901           
         C30       1.0000    0.79253   0.67237   0.78607   Biso      1.000     C          -0.14267  
         C31       1.0000    0.54080   0.99430   0.88060   Biso      1.000     C          -0.141975           
         C32       1.0000    0.51430   0.01650   0.19160   Biso      1.000     C          -0.198082           
         C33       1.0000    0.57970   0.98430   0.74120   Biso      1.000     C          0.638038  
         C34       1.0000    0.55550   0.01100   0.07600   Biso      1.000     C          0.30342   
         C35       1.0000    0.87983   0.20747   0.78607   Biso      1.000     C          -0.14173  
         C36       1.0000    0.54450   0.55550   0.92400   Biso      1.000     C          0.303444  
         C37       1.0000    0.31763   0.07127   0.92547   Biso      1.000     C          0.638035  
         C38       1.0000    0.98430   0.40460   0.25880   Biso      1.000     C          0.63797   
         C39       1.0000    0.67237   0.87983   0.21393   Biso      1.000     C          -0.141726           
         C40       1.0000    0.65017   0.83113   0.52493   Biso      1.000     C          -0.199149           
         C41       1.0000    0.68237   0.92873   0.07453   Biso      1.000     C          0.638045  
         C42       1.0000    0.65567   0.87783   0.40933   Biso      1.000     C          0.303051  
         C43       1.0000    0.15237   0.31683   0.14173   Biso      1.000     C          -0.198726           
         C44       1.0000    0.12587   0.33903   0.45273   Biso      1.000     C          -0.141914           
         C45       1.0000    0.66097   0.78683   0.45273   Biso      1.000     C          -0.14098  
         C46       1.0000    0.67767   0.78883   0.25733   Biso      1.000     C          0.30341   
         C47       1.0000    0.00570   0.54650   0.88060   Biso      1.000     C          -0.137281           
         C48       1.0000    0.98350   0.49780   0.19160   Biso      1.000     C          -0.191972           
         C49       1.0000    0.01570   0.59540   0.74120   Biso      1.000     C          0.632407  
         C50       1.0000    0.98900   0.54450   0.07600   Biso      1.000     C          0.303536  
         C51       1.0000    0.77783   0.65567   0.59067   Biso      1.000     C          0.302809  
         C52       1.0000    0.75363   0.68237   0.92547   Biso      1.000     C          0.638346  
         C53       1.0000    0.81903   0.65017   0.47507   Biso      1.000     C          -0.199717           
         C54       1.0000    0.08697   0.34903   0.59213   Biso      1.000     C          0.63819   
         C55       1.0000    0.01100   0.45550   0.92400   Biso      1.000     C          0.305873  
         C56       1.0000    0.88883   0.67767   0.74267   Biso      1.000     C          0.30382   
         C57       1.0000    0.11117   0.32233   0.25733   Biso      1.000     C          0.303292  
         C58       1.0000    0.45350   0.45920   0.88060   Biso      1.000     C          -0.142516           
         C59       1.0000    0.50220   0.48570   0.19160   Biso      1.000     C          -0.198283           
         C60       1.0000    0.40460   0.42030   0.74120   Biso      1.000     C          0.638062  
         C61       1.0000    0.45550   0.44450   0.07600   Biso      1.000     C          0.303059  
         C62       1.0000    0.44450   0.98900   0.92400   Biso      1.000     C          0.303202  
         C63       1.0000    0.42030   0.01570   0.25880   Biso      1.000     C          0.638131  
         C64       1.0000    0.48570   0.98350   0.80840   Biso      1.000     C          -0.198189           
         C65       1.0000    0.01650   0.50220   0.80840   Biso      1.000     C          -0.199592           
         C66       1.0000    0.33903   0.21317   0.54727   Biso      1.000     C          -0.141064           
         C67       1.0000    0.31683   0.16447   0.85827   Biso      1.000     C          -0.198686           
         C68       1.0000    0.34903   0.26207   0.40787   Biso      1.000     C          0.63793   
         C69       1.0000    0.32233   0.21117   0.74267   Biso      1.000     C          0.303417  
         C70       1.0000    0.99430   0.45350   0.11940   Biso      1.000     C          -0.143471           
         C71       1.0000    0.34433   0.12217   0.59067   Biso      1.000     C          0.303141  
         C72       1.0000    0.45920   0.00570   0.11940   Biso      1.000     C          -0.142362           
         Co1       1.0000    0.05053   0.36533   0.98134   Biso      1.000     Co          0.964347  
         Co2       1.0000    0.38386   0.03200   0.64801   Biso      1.000     Co          0.965879  
         Co3       1.0000    0.71720   0.69866   0.31467   Biso      1.000     Co          0.963915  
         Co4       1.0000    0.94947   0.63467   0.01866   Biso      1.000     Co          0.959066  
         Co5       1.0000    0.63467   0.68520   0.98134   Biso      1.000     Co          0.964498  
         Co6       1.0000    0.64813   0.61614   0.64801   Biso      1.000     Co          0.965807  
         Co7       1.0000    0.61614   0.96800   0.35199   Biso      1.000     Co          0.965918  
         Co8       1.0000    0.28280   0.30134   0.68533   Biso      1.000     Co          0.964464  
         Co9       1.0000    0.98147   0.28280   0.31467   Biso      1.000     Co          0.964752  
         Co10      1.0000    0.36533   0.31480   0.01866   Biso      1.000     Co          0.965403  
         Co11      1.0000    0.03200   0.64813   0.35199   Biso      1.000     Co          0.819154  
         Co12      1.0000    0.31480   0.94947   0.98134   Biso      1.000     Co          0.9646    
         Co13      1.0000    0.96800   0.35187   0.64801   Biso      1.000     Co          0.964724  
         Co14      1.0000    0.68520   0.05053   0.01866   Biso      1.000     Co          0.964889  
         Co15      1.0000    0.30134   0.01853   0.31467   Biso      1.000     Co          0.963998  
         Co16      1.0000    0.35187   0.38386   0.35199   Biso      1.000     Co          0.965461  
         Co17      1.0000    0.01853   0.71720   0.68533   Biso      1.000     Co          0.950614  
         Co18      1.0000    0.69866   0.98147   0.68533   Biso      1.000     Co          0.964652  
         H1        1.0000    0.82923   0.19057   0.34167   Biso      1.000     H          0.145984  
         H2        1.0000    0.36133   0.17077   0.34167   Biso      1.000     H          0.146056  
         H3        1.0000    0.47610   0.97200   0.67500   Biso      1.000     H          0.145405  
         H4        1.0000    0.14277   0.30533   0.00833   Biso      1.000     H          0.145461  
         H5        1.0000    0.69467   0.83743   0.00833   Biso      1.000     H          0.145449  
         H6        1.0000    0.49590   0.52390   0.67500   Biso      1.000     H          0.145415  
         H7        1.0000    0.16257   0.85723   0.00833   Biso      1.000     H          0.145659  
         H8        1.0000    0.85723   0.69467   0.99167   Biso      1.000     H          0.145263  
         H9        1.0000    0.80943   0.63867   0.34167   Biso      1.000     H          0.145829  
         H10       1.0000    0.50410   0.47610   0.32500   Biso      1.000     H          0.145399  
         H11       1.0000    0.83743   0.14277   0.99167   Biso      1.000     H          0.145476  
         H12       1.0000    0.30533   0.16257   0.99167   Biso      1.000     H          0.145424  
         H13       1.0000    0.52390   0.02800   0.32500   Biso      1.000     H          0.145435  
         H14       1.0000    0.19057   0.36133   0.65833   Biso      1.000     H          0.14601   
         H15       1.0000    0.63867   0.82923   0.65833   Biso      1.000     H          0.146004  
         H16       1.0000    0.97200   0.49590   0.32500   Biso      1.000     H          0.146364  
         H17       1.0000    0.17077   0.80943   0.65833   Biso      1.000     H          0.146046  
         H18       1.0000    0.02800   0.50410   0.67500   Biso      1.000     H          0.14589   
         O1        1.0000    0.56197   0.96683   0.56833   Biso      1.000     O          -0.529088           
         O2        1.0000    0.97647   0.58383   0.16423   Biso      1.000     O          -0.559474           
         O3        1.0000    0.03317   0.59513   0.56833   Biso      1.000     O          -0.494502           
         O4        1.0000    0.89530   0.63350   0.23500   Biso      1.000     O          -0.529266           
         O5        1.0000    0.26180   0.89530   0.76500   Biso      1.000     O          -0.529214           
         O6        1.0000    0.25050   0.94070   0.16910   Biso      1.000     O          -0.587728           
         O7        1.0000    0.94070   0.69020   0.83090   Biso      1.000     O          -0.590043           
         O8        1.0000    0.37060   0.00730   0.19700   Biso      1.000     O          -0.594135           
         O9        1.0000    0.36330   0.37060   0.80300   Biso      1.000     O          -0.594281           
         O10       1.0000    0.30980   0.25050   0.83090   Biso      1.000     O          -0.588467           
         O11       1.0000    0.36650   0.26180   0.23500   Biso      1.000     O          -0.529085           
         O12       1.0000    0.00730   0.63670   0.80300   Biso      1.000     O          -0.591306           
         O13       1.0000    0.34063   0.30337   0.46967   Biso      1.000     O          -0.594025           
         O14       1.0000    0.70393   0.67397   0.86367   Biso      1.000     O          -0.594499           
         O15       1.0000    0.27403   0.35687   0.49757   Biso      1.000     O          -0.588878           
         O16       1.0000    0.92847   0.22863   0.09833   Biso      1.000     O          -0.52882  
         O17       1.0000    0.02997   0.70393   0.13633   Biso      1.000     O          -0.554491           
         O18       1.0000    0.03727   0.34063   0.53033   Biso      1.000     O          -0.594193           
         O19       1.0000    0.22863   0.30017   0.90167   Biso      1.000     O          -0.528985           
         O20       1.0000    0.58383   0.60737   0.83577   Biso      1.000     O          -0.588723           
         O21       1.0000    0.67397   0.97003   0.13633   Biso      1.000     O          -0.594421           
         O22       1.0000    0.60737   0.02353   0.16423   Biso      1.000     O          -0.588631           
         O23       1.0000    0.59513   0.56197   0.43167   Biso      1.000     O          -0.529167           
         O24       1.0000    0.91717   0.27403   0.50243   Biso      1.000     O          -0.589009           
         O25       1.0000    0.72597   0.64313   0.50243   Biso      1.000     O          -0.58885  
         O26       1.0000    0.65937   0.69663   0.53033   Biso      1.000     O          -0.593998           
         O27       1.0000    0.77137   0.69983   0.09833   Biso      1.000     O          -0.528874           
         O28       1.0000    0.43803   0.03317   0.43167   Biso      1.000     O          -0.528855           
         O29       1.0000    0.39263   0.97647   0.83577   Biso      1.000     O          -0.588452           
         O30       1.0000    0.32603   0.02997   0.86367   Biso      1.000     O          -0.594446           
         O31       1.0000    0.99270   0.36330   0.19700   Biso      1.000     O          -0.59389  
         O32       1.0000    0.05930   0.30980   0.16910   Biso      1.000     O          -0.588096           
         O33       1.0000    0.10470   0.36650   0.76500   Biso      1.000     O          -0.528885           
         O34       1.0000    0.96273   0.65937   0.46967   Biso      1.000     O          -0.575594           
         O35       1.0000    0.08283   0.72597   0.49757   Biso      1.000     O          -0.547498           
         O36       1.0000    0.63350   0.73820   0.76500   Biso      1.000     O          -0.529274           
         O37       1.0000    0.69020   0.74950   0.16910   Biso      1.000     O          -0.588251           
         O38       1.0000    0.63670   0.62940   0.19700   Biso      1.000     O          -0.593772           
         O39       1.0000    0.69983   0.92847   0.90167   Biso      1.000     O          -0.52865  
         O40       1.0000    0.07153   0.77137   0.90167   Biso      1.000     O          -0.52366  
         O41       1.0000    0.41617   0.39263   0.16423   Biso      1.000     O          -0.588406           
         O42       1.0000    0.40487   0.43803   0.56833   Biso      1.000     O          -0.528832           
         O43       1.0000    0.30017   0.07153   0.09833   Biso      1.000     O          -0.528623           
         O44       1.0000    0.35687   0.08283   0.50243   Biso      1.000     O          -0.588796           
         O45       1.0000    0.30337   0.96273   0.53033   Biso      1.000     O          -0.593751           
         O46       1.0000    0.62940   0.99270   0.80300   Biso      1.000     O          -0.594021           
         O47       1.0000    0.74950   0.05930   0.83090   Biso      1.000     O          -0.588194           
         O48       1.0000    0.73820   0.10470   0.23500   Biso      1.000     O          -0.529081           
         O49       1.0000    0.69663   0.03727   0.46967   Biso      1.000     O          -0.594219           
         O50       1.0000    0.64313   0.91717   0.49757   Biso      1.000     O          -0.589022           
         O51       1.0000    0.96683   0.40487   0.43167   Biso      1.000     O          -0.52914  
         O52       1.0000    0.02353   0.41617   0.83577   Biso      1.000     O          -0.586918           
         O53       1.0000    0.29607   0.32603   0.13633   Biso      1.000     O          -0.594268           
         O54       1.0000    0.97003   0.29607   0.86367   Biso      1.000     O          -0.594194 