
##########################################################################
#               Crystallographic Information Format file
#               Produced by PyCifRW module
#
#  This is a CIF file.  CIF has been adopted by the International
#  Union of Crystallography as the standard for data archiving and
#  transmission.
#
#  For information on this file format, follow the CIF links at
#  http://www.iucr.org
##########################################################################

data_image0

_cell_length_a                          25.887
_cell_length_b                          25.887
_cell_length_c                          6.821
_cell_angle_alpha                       90
_cell_angle_beta                        90
_cell_angle_gamma                       120
_symmetry_space_group_name_H-M          'P 1'
_symmetry_int_tables_number             1
loop_
  _symmetry_equiv_pos_as_xyz
         'x, y, z' 
loop_
  _atom_site_label
  _atom_site_occupancy
  _atom_site_fract_x
  _atom_site_fract_y
  _atom_site_fract_z
  _atom_site_thermal_displace_type
  _atom_site_B_iso_or_equiv
  _atom_site_type_symbol
  _atom_site_charge
         C1        1.0000    0.42197   0.40463   0.76283   Biso      1.000     C          0.6369670000000001  
         C2        1.0000    0.00743   0.46027   0.38337   Biso      1.000     C          -0.140279           
         C3        1.0000    0.99213   0.44647   0.57277   Biso      1.000     C          0.305644  
         C4        1.0000    0.98403   0.48597   0.69437   Biso      1.000     C          -0.20664699999999997          
         C5        1.0000    0.15263   0.83527   0.63897   Biso      1.000     C          -0.20656300000000002          
         C6        1.0000    0.11313   0.78767   0.76057   Biso      1.000     C          0.305832  
         C7        1.0000    0.12693   0.78617   0.94997   Biso      1.000     C          -0.138499           
         C8        1.0000    0.08863   0.73797   0.09617   Biso      1.000     C          0.635718  
         C9        1.0000    0.24470   0.92870   0.57050   Biso      1.000     C          0.6372770000000001  
         C10       1.0000    0.20640   0.88050   0.71670   Biso      1.000     C          -0.140397           
         C11       1.0000    0.22020   0.87900   0.90610   Biso      1.000     C          0.30659000000000003           
         C12       1.0000    0.18070   0.83140   0.02770   Biso      1.000     C          -0.207814           
         C13       1.0000    0.48597   0.50193   0.30563   Biso      1.000     C          -0.206887           
         C14       1.0000    0.44647   0.45433   0.42723   Biso      1.000     C          0.305722  
         C15       1.0000    0.46027   0.45283   0.61663   Biso      1.000     C          -0.140245           
         C16       1.0000    0.16473   0.31737   0.63897   Biso      1.000     C          -0.20659  
         C17       1.0000    0.01733   0.42197   0.23717   Biso      1.000     C          0.636834  
         C18       1.0000    0.92870   0.68400   0.42950   Biso      1.000     C          0.6372899999999999  
         C19       1.0000    0.88050   0.67410   0.28330   Biso      1.000     C          -0.140353           
         C20       1.0000    0.87900   0.65880   0.09390   Biso      1.000     C          0.306603  
         C21       1.0000    0.21233   0.32547   0.76057   Biso      1.000     C          0.305765  
         C22       1.0000    0.21383   0.34077   0.94997   Biso      1.000     C          -0.138573           
         C23       1.0000    0.26203   0.35067   0.09617   Biso      1.000     C          0.6359    
         C24       1.0000    0.68400   0.75530   0.57050   Biso      1.000     C          0.637282  
         C25       1.0000    0.67410   0.79360   0.71670   Biso      1.000     C          -0.14033900000000002          
         C26       1.0000    0.65880   0.77980   0.90610   Biso      1.000     C          0.306585  
         C27       1.0000    0.65070   0.81930   0.02770   Biso      1.000     C          -0.207738           
         C28       1.0000    0.91137   0.26203   0.90383   Biso      1.000     C          0.63572   
         C29       1.0000    0.49807   0.98403   0.30563   Biso      1.000     C          -0.206839           
         C30       1.0000    0.54717   0.00743   0.61663   Biso      1.000     C          -0.140007           
         C31       1.0000    0.59537   0.01733   0.76283   Biso      1.000     C          0.636865  
         C32       1.0000    0.35067   0.08863   0.90383   Biso      1.000     C          0.636104  
         C33       1.0000    0.34077   0.12693   0.05003   Biso      1.000     C          -0.138657           
         C34       1.0000    0.32547   0.11313   0.23943   Biso      1.000     C          0.305756  
         C35       1.0000    0.31737   0.15263   0.36103   Biso      1.000     C          -0.20660100000000003          
         C36       1.0000    0.83140   0.65070   0.97230   Biso      1.000     C          -0.20779699999999998          
         C37       1.0000    0.54567   0.99213   0.42723   Biso      1.000     C          0.305501  
         C38       1.0000    0.87307   0.21383   0.05003   Biso      1.000     C          -0.138522           
         C39       1.0000    0.50193   0.01597   0.69437   Biso      1.000     C          -0.206839           
         C40       1.0000    0.84737   0.16473   0.36103   Biso      1.000     C          -0.20656799999999997          
         C41       1.0000    0.01597   0.51403   0.30563   Biso      1.000     C          -0.206641           
         C42       1.0000    0.00787   0.55353   0.42723   Biso      1.000     C          0.30562   
         C43       1.0000    0.99257   0.53973   0.61663   Biso      1.000     C          -0.140251           
         C44       1.0000    0.98267   0.57803   0.76283   Biso      1.000     C          0.636831  
         C45       1.0000    0.73797   0.64933   0.90383   Biso      1.000     C          0.6359020000000001  
         C46       1.0000    0.78617   0.65923   0.05003   Biso      1.000     C          -0.138595           
         C47       1.0000    0.78767   0.67453   0.23943   Biso      1.000     C          0.305785  
         C48       1.0000    0.83527   0.68263   0.36103   Biso      1.000     C          -0.206589           
         C49       1.0000    0.34930   0.18070   0.97230   Biso      1.000     C          -0.20773200000000003          
         C50       1.0000    0.34120   0.22020   0.09390   Biso      1.000     C          0.306562  
         C51       1.0000    0.32590   0.20640   0.28330   Biso      1.000     C          -0.14031400000000002          
         C52       1.0000    0.31600   0.24470   0.42950   Biso      1.000     C          0.637279  
         C53       1.0000    0.40463   0.98267   0.23717   Biso      1.000     C          0.636865  
         C54       1.0000    0.45283   0.99257   0.38337   Biso      1.000     C          -0.140007           
         C55       1.0000    0.45433   0.00787   0.57277   Biso      1.000     C          0.305501  
         C56       1.0000    0.88687   0.21233   0.23943   Biso      1.000     C          0.30585300000000004           
         C57       1.0000    0.12100   0.34120   0.90610   Biso      1.000     C          0.306581  
         C58       1.0000    0.16860   0.34930   0.02770   Biso      1.000     C          -0.207798           
         C59       1.0000    0.07130   0.31600   0.57050   Biso      1.000     C          0.6372869999999999  
         C60       1.0000    0.81930   0.16860   0.97230   Biso      1.000     C          -0.20780900000000002          
         C61       1.0000    0.77980   0.12100   0.09390   Biso      1.000     C          0.30656700000000003           
         C62       1.0000    0.79360   0.11950   0.28330   Biso      1.000     C          -0.140372           
         C63       1.0000    0.75530   0.07130   0.42950   Biso      1.000     C          0.637274  
         C64       1.0000    0.57803   0.59537   0.23717   Biso      1.000     C          0.6369670000000001  
         C65       1.0000    0.11950   0.32590   0.71670   Biso      1.000     C          -0.140329           
         C66       1.0000    0.55353   0.54567   0.57277   Biso      1.000     C          0.305722  
         C67       1.0000    0.51403   0.49807   0.69437   Biso      1.000     C          -0.206887           
         C68       1.0000    0.53973   0.54717   0.38337   Biso      1.000     C          -0.140245           
         C69       1.0000    0.68263   0.84737   0.63897   Biso      1.000     C          -0.206596           
         C70       1.0000    0.67453   0.88687   0.76057   Biso      1.000     C          0.305735  
         C71       1.0000    0.65923   0.87307   0.94997   Biso      1.000     C          -0.13863499999999998          
         C72       1.0000    0.64933   0.91137   0.09617   Biso      1.000     C          0.6361020000000001  
         H1        1.0000    0.83637   0.69703   0.48633   Biso      1.000     H          0.148707  
         H2        1.0000    0.63630   0.80600   0.15300   Biso      1.000     H          0.14940599999999998           
         H3        1.0000    0.96963   0.47267   0.81967   Biso      1.000     H          0.149258  
         H4        1.0000    0.30297   0.13933   0.48633   Biso      1.000     H          0.148651  
         H5        1.0000    0.19400   0.83030   0.15300   Biso      1.000     H          0.14941300000000002           
         H6        1.0000    0.16970   0.36370   0.15300   Biso      1.000     H          0.149417  
         H7        1.0000    0.86067   0.16363   0.48633   Biso      1.000     H          0.14866400000000002           
         H8        1.0000    0.52733   0.49697   0.81967   Biso      1.000     H          0.149318  
         H9        1.0000    0.16363   0.30297   0.51367   Biso      1.000     H          0.148707  
         H10       1.0000    0.50303   0.03037   0.81967   Biso      1.000     H          0.149384  
         H11       1.0000    0.47267   0.50303   0.18033   Biso      1.000     H          0.149318  
         H12       1.0000    0.83030   0.63630   0.84700   Biso      1.000     H          0.149417  
         H13       1.0000    0.80600   0.16970   0.84700   Biso      1.000     H          0.14941300000000002           
         H14       1.0000    0.03037   0.52733   0.18033   Biso      1.000     H          0.149257  
         H15       1.0000    0.69703   0.86067   0.51367   Biso      1.000     H          0.148651  
         H16       1.0000    0.49697   0.96963   0.18033   Biso      1.000     H          0.149384  
         H17       1.0000    0.36370   0.19400   0.84700   Biso      1.000     H          0.14940499999999998           
         H18       1.0000    0.13933   0.83637   0.51367   Biso      1.000     H          0.14866300000000002           
         O1        1.0000    0.67290   0.70560   0.63820   Biso      1.000     O          -0.582076           
         O2        1.0000    0.03270   0.32710   0.63820   Biso      1.000     O          -0.582055           
         O3        1.0000    0.70560   0.03270   0.36180   Biso      1.000     O          -0.582079           
         O4        1.0000    0.60713   0.58627   0.66407   Biso      1.000     O          -0.617066           
         O5        1.0000    0.72620   0.08040   0.00260   Biso      1.000     O          -0.6177199999999999           
         O6        1.0000    0.07500   0.30330   0.39230   Biso      1.000     O          -0.522922           
         O7        1.0000    0.56163   0.59167   0.05897   Biso      1.000     O          -0.52298  
         O8        1.0000    0.62773   0.63397   0.30487   Biso      1.000     O          -0.5816600000000001           
         O9        1.0000    0.37227   0.36603   0.69513   Biso      1.000     O          -0.5816600000000001           
         O10       1.0000    0.43837   0.40833   0.94103   Biso      1.000     O          -0.52298  
         O11       1.0000    0.77170   0.07500   0.60770   Biso      1.000     O          -0.522925           
         O12       1.0000    0.08040   0.35420   0.99740   Biso      1.000     O          -0.617725           
         O13       1.0000    0.63663   0.89497   0.27437   Biso      1.000     O          -0.522971           
         O14       1.0000    0.94047   0.25293   0.33073   Biso      1.000     O          -0.6176149999999999           
         O15       1.0000    0.66043   0.96107   0.02847   Biso      1.000     O          -0.581238           
         O16       1.0000    0.69937   0.66043   0.97153   Biso      1.000     O          -0.581146           
         O17       1.0000    0.74167   0.63663   0.72563   Biso      1.000     O          -0.52285  
         O18       1.0000    0.74707   0.68753   0.33073   Biso      1.000     O          -0.617595           
         O19       1.0000    0.02087   0.60713   0.33593   Biso      1.000     O          -0.617103           
         O20       1.0000    0.96997   0.56163   0.94103   Biso      1.000     O          -0.522933           
         O21       1.0000    0.99377   0.62773   0.69513   Biso      1.000     O          -0.581649           
         O22       1.0000    0.36603   0.99377   0.30487   Biso      1.000     O          -0.581627           
         O23       1.0000    0.40833   0.96997   0.05897   Biso      1.000     O          -0.523    
         O24       1.0000    0.41373   0.02087   0.66407   Biso      1.000     O          -0.617215           
         O25       1.0000    0.35420   0.27380   0.00260   Biso      1.000     O          -0.617707           
         O26       1.0000    0.30330   0.22830   0.60770   Biso      1.000     O          -0.522911           
         O27       1.0000    0.32710   0.29440   0.36180   Biso      1.000     O          -0.582076           
         O28       1.0000    0.68753   0.94047   0.66927   Biso      1.000     O          -0.617557           
         O29       1.0000    0.89497   0.25833   0.72563   Biso      1.000     O          -0.5227649999999999           
         O30       1.0000    0.39287   0.41373   0.33593   Biso      1.000     O          -0.617066           
         O31       1.0000    0.00623   0.37227   0.30487   Biso      1.000     O          -0.5816479999999999           
         O32       1.0000    0.63397   0.00623   0.69513   Biso      1.000     O          -0.581627           
         O33       1.0000    0.31247   0.05953   0.33073   Biso      1.000     O          -0.6175579999999999           
         O34       1.0000    0.36337   0.10503   0.72563   Biso      1.000     O          -0.522971           
         O35       1.0000    0.33957   0.03893   0.97153   Biso      1.000     O          -0.581238           
         O36       1.0000    0.96107   0.30063   0.97153   Biso      1.000     O          -0.5811310000000001           
         O37       1.0000    0.03003   0.43837   0.05897   Biso      1.000     O          -0.522933           
         O38       1.0000    0.97913   0.39287   0.66407   Biso      1.000     O          -0.617104           
         O39       1.0000    0.91960   0.64580   0.00260   Biso      1.000     O          -0.617727           
         O40       1.0000    0.92500   0.69670   0.60770   Biso      1.000     O          -0.522922           
         O41       1.0000    0.96730   0.67290   0.36180   Biso      1.000     O          -0.582055           
         O42       1.0000    0.59167   0.03003   0.94103   Biso      1.000     O          -0.523    
         O43       1.0000    0.58627   0.97913   0.33593   Biso      1.000     O          -0.617215           
         O44       1.0000    0.30063   0.33957   0.02847   Biso      1.000     O          -0.581146           
         O45       1.0000    0.29440   0.96730   0.63820   Biso      1.000     O          -0.582079           
         O46       1.0000    0.22830   0.92500   0.39230   Biso      1.000     O          -0.522925           
         O47       1.0000    0.27380   0.91960   0.99740   Biso      1.000     O          -0.617721           
         O48       1.0000    0.05953   0.74707   0.66927   Biso      1.000     O          -0.617614           
         O49       1.0000    0.25833   0.36337   0.27437   Biso      1.000     O          -0.52285  
         O50       1.0000    0.10503   0.74167   0.27437   Biso      1.000     O          -0.5227649999999999           
         O51       1.0000    0.25293   0.31247   0.66927   Biso      1.000     O          -0.6175930000000001           
         O52       1.0000    0.03893   0.69937   0.02847   Biso      1.000     O          -0.5811310000000001           
         O53       1.0000    0.64580   0.72620   0.99740   Biso      1.000     O          -0.6177090000000001           
         O54       1.0000    0.69670   0.77170   0.39230   Biso      1.000     O          -0.522911           
         Zn1       1.0000    0.28307   0.98093   0.19783   Biso      1.000     Zn          0.9768629999999999  
         Zn2       1.0000    0.05027   0.68573   0.46883   Biso      1.000     Zn          0.976793  
         Zn3       1.0000    0.30213   0.28307   0.80217   Biso      1.000     Zn          0.9767809999999999  
         Zn4       1.0000    0.36453   0.05027   0.53117   Biso      1.000     Zn          0.9768209999999999  
         Zn5       1.0000    0.01907   0.30213   0.19783   Biso      1.000     Zn          0.976833  
         Zn6       1.0000    0.63547   0.94973   0.46883   Biso      1.000     Zn          0.976822  
         Zn7       1.0000    0.71693   0.01907   0.80217   Biso      1.000     Zn          0.9768620000000001  
         Zn8       1.0000    0.94973   0.31427   0.53117   Biso      1.000     Zn          0.976793  
         Zn9       1.0000    0.03120   0.38360   0.86450   Biso      1.000     Zn          0.977203  
         Zn10      1.0000    0.64760   0.03120   0.13550   Biso      1.000     Zn          0.9773040000000001  
         Zn11      1.0000    0.96880   0.61640   0.13550   Biso      1.000     Zn          0.977203  
         Zn12      1.0000    0.35240   0.96880   0.86450   Biso      1.000     Zn          0.9773040000000001  
         Zn13      1.0000    0.68573   0.63547   0.53117   Biso      1.000     Zn          0.9767870000000001  
         Zn14      1.0000    0.31427   0.36453   0.46883   Biso      1.000     Zn          0.9767870000000001  
         Zn15      1.0000    0.98093   0.69787   0.80217   Biso      1.000     Zn          0.9768319999999999  
         Zn16      1.0000    0.61640   0.64760   0.86450   Biso      1.000     Zn          0.9772    
         Zn17      1.0000    0.69787   0.71693   0.19783   Biso      1.000     Zn          0.9767819999999999  
         Zn18      1.0000    0.38360   0.35240   0.13550   Biso      1.000     Zn          0.9772 