
##########################################################################
#               Crystallographic Information Format file
#               Produced by PyCifRW module
#
#  This is a CIF file.  CIF has been adopted by the International
#  Union of Crystallography as the standard for data archiving and
#  transmission.
#
#  For information on this file format, follow the CIF links at
#  http://www.iucr.org
##########################################################################

data_image0

_cell_length_a                          8.649
_cell_length_b                          14.763
_cell_length_c                          16.033
_cell_angle_alpha                       104.344
_cell_angle_beta                        97.349
_cell_angle_gamma                       105.907
_symmetry_space_group_name_H-M          'P 1'
_symmetry_int_tables_number             1
loop_
  _symmetry_equiv_pos_as_xyz
         'x, y, z' 
loop_
  _atom_site_label
  _atom_site_occupancy
  _atom_site_fract_x
  _atom_site_fract_y
  _atom_site_fract_z
  _atom_site_thermal_displace_type
  _atom_site_B_iso_or_equiv
  _atom_site_type_symbol
  _atom_site_charge
         C1        1.0000    0.59640   0.47710   0.27020   Biso      1.000     C          -0.24079899999999999          
         C2        1.0000    0.56770   0.53760   0.22220   Biso      1.000     C          0.020986  
         C3        1.0000    0.63170   0.52600   0.13700   Biso      1.000     C          0.588349  
         C4        1.0000    0.91340   0.79700   0.34400   Biso      1.000     C          0.605719  
         C5        1.0000    0.91150   0.75090   0.41570   Biso      1.000     C          -0.034270999999999996         
         C6        1.0000    0.94950   0.66340   0.39720   Biso      1.000     C          -0.080474           
         C7        1.0000    0.95360   0.61250   0.46060   Biso      1.000     C          -0.19678900000000002          
         C8        1.0000    0.92280   0.65060   0.54080   Biso      1.000     C          0.277817  
         C9        1.0000    0.88860   0.73700   0.56100   Biso      1.000     C          -0.210009           
         C10       1.0000    0.88580   0.78990   0.49990   Biso      1.000     C          -0.011316           
         C11       1.0000    0.85120   0.88470   0.52610   Biso      1.000     C          0.584991  
         C12       1.0000    0.20890   0.74260   0.96210   Biso      1.000     C          0.575462  
         C13       1.0000    0.13380   0.70250   0.86580   Biso      1.000     C          -0.05038  
         C14       1.0000    0.18820   0.75560   0.81010   Biso      1.000     C          -0.059739999999999994         
         C15       1.0000    0.11990   0.72370   0.72020   Biso      1.000     C          -0.21565399999999998          
         C16       1.0000    0.99500   0.63390   0.68620   Biso      1.000     C          0.285693  
         C17       1.0000    0.93870   0.57720   0.74130   Biso      1.000     C          -0.252248           
         C18       1.0000    0.00660   0.61220   0.83110   Biso      1.000     C          0.015059999999999999          
         C19       1.0000    0.93270   0.55210   0.88770   Biso      1.000     C          0.583994  
         C20       1.0000    0.60660   0.99070   0.72590   Biso      1.000     C          0.597168  
         C21       1.0000    0.04640   0.38750   0.53940   Biso      1.000     C          -0.196793           
         C22       1.0000    0.54830   0.48400   0.35180   Biso      1.000     C          0.281036  
         C23       1.0000    0.48100   0.55470   0.38510   Biso      1.000     C          -0.210466           
         C24       1.0000    0.45190   0.61570   0.33620   Biso      1.000     C          -0.084018           
         C25       1.0000    0.11420   0.21010   0.50010   Biso      1.000     C          -0.011317           
         C26       1.0000    0.14880   0.11530   0.47390   Biso      1.000     C          0.584987  
         C27       1.0000    0.79110   0.25740   0.03790   Biso      1.000     C          0.5754640000000001  
         C28       1.0000    0.86620   0.29750   0.13420   Biso      1.000     C          -0.050386           
         C29       1.0000    0.81180   0.24440   0.18990   Biso      1.000     C          -0.059736000000000004         
         C30       1.0000    0.88010   0.27630   0.27980   Biso      1.000     C          -0.215655           
         C31       1.0000    0.00500   0.36610   0.31380   Biso      1.000     C          0.285696  
         C32       1.0000    0.06130   0.42280   0.25870   Biso      1.000     C          -0.252244           
         C33       1.0000    0.99340   0.38780   0.16890   Biso      1.000     C          0.015059000000000001          
         C34       1.0000    0.55660   0.88000   0.69220   Biso      1.000     C          -0.06671  
         C35       1.0000    0.06730   0.44790   0.11230   Biso      1.000     C          0.583992  
         C36       1.0000    0.44340   0.12000   0.30780   Biso      1.000     C          -0.066689           
         C37       1.0000    0.38350   0.17180   0.25490   Biso      1.000     C          -0.036649           
         C38       1.0000    0.42400   0.27360   0.28430   Biso      1.000     C          -0.230352           
         C39       1.0000    0.52600   0.32430   0.36560   Biso      1.000     C          0.287308  
         C40       1.0000    0.58290   0.27480   0.42120   Biso      1.000     C          -0.25856799999999996          
         C41       1.0000    0.53760   0.17250   0.39140   Biso      1.000     C          0.009685  
         C42       1.0000    0.60110   0.12470   0.45480   Biso      1.000     C          0.595834  
         C43       1.0000    0.44300   0.67090   0.20070   Biso      1.000     C          0.604321  
         C44       1.0000    0.49270   0.60890   0.25410   Biso      1.000     C          -0.055605999999999996         
         C45       1.0000    0.39340   0.00930   0.27410   Biso      1.000     C          0.597166  
         C46       1.0000    0.61650   0.82820   0.74510   Biso      1.000     C          -0.036649           
         C47       1.0000    0.57600   0.72640   0.71570   Biso      1.000     C          -0.230357           
         C48       1.0000    0.47400   0.67570   0.63440   Biso      1.000     C          0.28729899999999997           
         C49       1.0000    0.08660   0.20300   0.65600   Biso      1.000     C          0.605715  
         C50       1.0000    0.08850   0.24910   0.58430   Biso      1.000     C          -0.03427  
         C51       1.0000    0.05050   0.33660   0.60280   Biso      1.000     C          -0.080474           
         C52       1.0000    0.11140   0.26300   0.43900   Biso      1.000     C          -0.21002300000000002          
         C53       1.0000    0.36830   0.47400   0.86300   Biso      1.000     C          0.588359  
         C54       1.0000    0.43230   0.46240   0.77780   Biso      1.000     C          0.020985  
         C55       1.0000    0.40360   0.52290   0.72980   Biso      1.000     C          -0.240788           
         C56       1.0000    0.07720   0.34940   0.45920   Biso      1.000     C          0.277835  
         C57       1.0000    0.51900   0.44530   0.61490   Biso      1.000     C          -0.21049  
         C58       1.0000    0.54810   0.38430   0.66380   Biso      1.000     C          -0.084009           
         C59       1.0000    0.50730   0.39110   0.74590   Biso      1.000     C          -0.055626           
         C60       1.0000    0.41710   0.72520   0.57880   Biso      1.000     C          -0.258575           
         C61       1.0000    0.46240   0.82750   0.60860   Biso      1.000     C          0.009692000000000001          
         C62       1.0000    0.39890   0.87530   0.54520   Biso      1.000     C          0.595837  
         C63       1.0000    0.55700   0.32910   0.79930   Biso      1.000     C          0.604324  
         C64       1.0000    0.45170   0.51600   0.64820   Biso      1.000     C          0.281044  
         Cd1       1.0000    0.74416   0.04198   0.56738   Biso      1.000     Cd          1.035627  
         Cd2       1.0000    0.32799   0.81269   0.13929   Biso      1.000     Cd          0.979514  
         Cd3       1.0000    0.76379   0.46542   0.99816   Biso      1.000     Cd          1.073177  
         Cd4       1.0000    0.67201   0.18731   0.86071   Biso      1.000     Cd          0.979561  
         Cd5       1.0000    0.23621   0.53458   0.00184   Biso      1.000     Cd          1.073178  
         Cd6       1.0000    0.25584   0.95802   0.43262   Biso      1.000     Cd          1.0356239999999999  
         H1        1.0000    0.35200   0.56880   0.75100   Biso      1.000     H          0.14002699999999998           
         H2        1.0000    0.54530   0.43810   0.55970   Biso      1.000     H          0.130206  
         H3        1.0000    0.59650   0.33720   0.64120   Biso      1.000     H          0.116337  
         H4        1.0000    0.35060   0.69030   0.52340   Biso      1.000     H          0.146479  
         H5        1.0000    0.61710   0.69280   0.75040   Biso      1.000     H          0.14339100000000002           
         H6        1.0000    0.68400   0.86280   0.80030   Biso      1.000     H          0.134042  
         H7        1.0000    0.27360   0.81490   0.83320   Biso      1.000     H          0.13163   
         H8        1.0000    0.15710   0.76150   0.68390   Biso      1.000     H          0.139667  
         H9        1.0000    0.02760   0.36160   0.65740   Biso      1.000     H          0.129051  
         H10       1.0000    0.02290   0.44670   0.55220   Biso      1.000     H          0.128777  
         H11       1.0000    0.13320   0.23880   0.38400   Biso      1.000     H          0.14060599999999998           
         H12       1.0000    0.72640   0.18510   0.16680   Biso      1.000     H          0.131632  
         H13       1.0000    0.84290   0.23850   0.31610   Biso      1.000     H          0.13966900000000002           
         H14       1.0000    0.14360   0.48350   0.28210   Biso      1.000     H          0.141693  
         H15       1.0000    0.85640   0.51650   0.71790   Biso      1.000     H          0.14169400000000001           
         H16       1.0000    0.31600   0.13720   0.19970   Biso      1.000     H          0.134026  
         H17       1.0000    0.64940   0.30970   0.47660   Biso      1.000     H          0.146475  
         H18       1.0000    0.40350   0.66280   0.35880   Biso      1.000     H          0.11633399999999999           
         H19       1.0000    0.45470   0.56190   0.44030   Biso      1.000     H          0.130199  
         H20       1.0000    0.97240   0.63840   0.34260   Biso      1.000     H          0.129053  
         H21       1.0000    0.97710   0.55330   0.44780   Biso      1.000     H          0.128778  
         H22       1.0000    0.86680   0.76120   0.61600   Biso      1.000     H          0.14060699999999998           
         H23       1.0000    0.38290   0.30720   0.24960   Biso      1.000     H          0.14338599999999999           
         H24       1.0000    0.64800   0.43120   0.24900   Biso      1.000     H          0.140025  
         Na1       1.0000    0.23130   0.23530   0.86830   Biso      1.000     Na          0.846717  
         Na2       1.0000    0.60510   0.87540   0.35190   Biso      1.000     Na          0.897194  
         Na3       1.0000    0.76870   0.76470   0.13170   Biso      1.000     Na          0.846792  
         Na4       1.0000    0.39490   0.12460   0.64810   Biso      1.000     Na          0.897183  
         O1        1.0000    0.73090   0.59510   0.12290   Biso      1.000     O          -0.581152           
         O2        1.0000    0.43400   0.64580   0.11900   Biso      1.000     O          -0.601546           
         O3        1.0000    0.41620   0.74670   0.24160   Biso      1.000     O          -0.59499  
         O4        1.0000    0.57840   0.42540   0.40180   Biso      1.000     O          -0.203246           
         O5        1.0000    0.52490   0.10890   0.51390   Biso      1.000     O          -0.635889           
         O6        1.0000    0.73450   0.10800   0.45020   Biso      1.000     O          -0.541308           
         O7        1.0000    0.41340   0.96170   0.32680   Biso      1.000     O          -0.635756           
         O8        1.0000    0.33540   0.96980   0.19180   Biso      1.000     O          -0.492361           
         O9        1.0000    0.18030   0.42630   0.07870   Biso      1.000     O          -0.523672           
         O10       1.0000    0.58820   0.43780   0.08600   Biso      1.000     O          -0.538612           
         O11       1.0000    0.81230   0.31710   0.99170   Biso      1.000     O          -0.571476           
         O12       1.0000    0.71990   0.16830   0.00380   Biso      1.000     O          -0.464    
         O13       1.0000    0.08040   0.40770   0.40140   Biso      1.000     O          -0.209281           
         O14       1.0000    0.14850   0.07710   0.39520   Biso      1.000     O          -0.524349           
         O15       1.0000    0.17710   0.07380   0.53230   Biso      1.000     O          -0.6390520000000001           
         O16       1.0000    0.94090   0.16000   0.66890   Biso      1.000     O          -0.508603           
         O17       1.0000    0.21420   0.21310   0.70780   Biso      1.000     O          -0.59891  
         O18       1.0000    0.02070   0.51940   0.10310   Biso      1.000     O          -0.562141           
         O19       1.0000    0.39010   0.11710   0.86200   Biso      1.000     O          -0.39476999999999995          
         O20       1.0000    0.93510   0.24710   0.83280   Biso      1.000     O          -0.25245100000000004          
         O21       1.0000    0.78580   0.78690   0.29220   Biso      1.000     O          -0.598934           
         O22       1.0000    0.41180   0.56220   0.91400   Biso      1.000     O          -0.538629           
         O23       1.0000    0.26910   0.40490   0.87710   Biso      1.000     O          -0.581141           
         O24       1.0000    0.56600   0.35420   0.88100   Biso      1.000     O          -0.601547           
         O25       1.0000    0.58380   0.25330   0.75840   Biso      1.000     O          -0.5949770000000001           
         O26       1.0000    0.42160   0.57460   0.59820   Biso      1.000     O          -0.203249           
         O27       1.0000    0.47510   0.89110   0.48610   Biso      1.000     O          -0.635893           
         O28       1.0000    0.26550   0.89200   0.54980   Biso      1.000     O          -0.541308           
         O29       1.0000    0.58660   0.03830   0.67320   Biso      1.000     O          -0.635754           
         O30       1.0000    0.66460   0.03020   0.80820   Biso      1.000     O          -0.492358           
         O31       1.0000    0.97930   0.48060   0.89690   Biso      1.000     O          -0.562145           
         O32       1.0000    0.81970   0.57370   0.92130   Biso      1.000     O          -0.523679           
         O33       1.0000    0.18770   0.68290   0.00830   Biso      1.000     O          -0.571484           
         O34       1.0000    0.28010   0.83170   0.99620   Biso      1.000     O          -0.464009           
         O35       1.0000    0.91960   0.59230   0.59860   Biso      1.000     O          -0.20927300000000001          
         O36       1.0000    0.85150   0.92290   0.60480   Biso      1.000     O          -0.524346           
         O37       1.0000    0.82290   0.92620   0.46770   Biso      1.000     O          -0.639048           
         O38       1.0000    0.05910   0.84000   0.33110   Biso      1.000     O          -0.508603           
         O39       1.0000    0.06490   0.75290   0.16720   Biso      1.000     O          -0.252419           
         O40       1.0000    0.60990   0.88290   0.13800   Biso      1.000     O          -0.39473800000000003 