
##########################################################################
#               Crystallographic Information Format file
#               Produced by PyCifRW module
#
#  This is a CIF file.  CIF has been adopted by the International
#  Union of Crystallography as the standard for data archiving and
#  transmission.
#
#  For information on this file format, follow the CIF links at
#  http://www.iucr.org
##########################################################################

data_image0

_cell_length_a                          34.3413
_cell_length_b                          10.0447
_cell_length_c                          17.7382
_cell_angle_alpha                       90
_cell_angle_beta                        96.234
_cell_angle_gamma                       90
_symmetry_space_group_name_H-M          'P 1'
_symmetry_int_tables_number             1
loop_
  _symmetry_equiv_pos_as_xyz
         'x, y, z' 
loop_
  _atom_site_label
  _atom_site_occupancy
  _atom_site_fract_x
  _atom_site_fract_y
  _atom_site_fract_z
  _atom_site_thermal_displace_type
  _atom_site_B_iso_or_equiv
  _atom_site_type_symbol
  _atom_site_charge
         C1        1.0000    0.27537   0.96820   0.99590   Biso      1.000     C          -0.093418           
         C2        1.0000    0.58467   0.11010   0.04610   Biso      1.000     C          0.444041  
         C3        1.0000    0.71735   0.12670   0.87090   Biso      1.000     C          0.678314  
         C4        1.0000    0.94719   0.50170   0.01420   Biso      1.000     C          -0.055683           
         C5        1.0000    0.84871   0.55080   0.32480   Biso      1.000     C          -0.164722           
         C6        1.0000    0.70025   0.07750   0.94090   Biso      1.000     C          0.008942  
         C7        1.0000    0.70915   0.98340   0.06760   Biso      1.000     C          0.017402  
         C8        1.0000    0.81884   0.29780   0.29890   Biso      1.000     C          0.017021  
         C9        1.0000    0.54123   0.10250   0.04410   Biso      1.000     C          -0.057037           
         C10       1.0000    0.87091   0.44190   0.34800   Biso      1.000     C          0.205375  
         C11       1.0000    0.98137   0.49310   0.47760   Biso      1.000     C          0.029182  
         C12       1.0000    0.90868   0.48360   0.46880   Biso      1.000     C          0.44181   
         C13       1.0000    0.94173   0.54500   0.85360   Biso      1.000     C          0.443889  
         C14       1.0000    0.79626   0.40650   0.27740   Biso      1.000     C          -0.134017           
         C15       1.0000    0.66873   0.98020   0.06670   Biso      1.000     C          -0.248346           
         C16       1.0000    0.97998   0.46740   0.40130   Biso      1.000     C          -0.072177           
         C17       1.0000    0.52076   0.00330   0.00050   Biso      1.000     C          0.025934  
         C18       1.0000    0.58343   0.08650   0.46030   Biso      1.000     C          0.440434  
         C19       1.0000    0.66005   0.07520   0.94170   Biso      1.000     C          -0.188476           
         C20       1.0000    0.78569   0.65300   0.26540   Biso      1.000     C          0.684902  
         C21       1.0000    0.80168   0.15930   0.28650   Biso      1.000     C          0.579865  
         C22       1.0000    0.81149   0.53550   0.28920   Biso      1.000     C          -0.017706           
         C23       1.0000    0.73559   0.94550   0.13620   Biso      1.000     C          0.595864  
         C24       1.0000    0.53965   0.09040   0.46040   Biso      1.000     C          -0.065757           
         C25       1.0000    0.85618   0.31400   0.33540   Biso      1.000     C          -0.165762           
         C26       1.0000    0.48153   0.81390   0.58290   Biso      1.000     C          -0.096718           
         C27       1.0000    0.72463   0.03180   0.00410   Biso      1.000     C          -0.092999           
         C28       1.0000    0.52180   0.80820   0.58450   Biso      1.000     C          -0.084149           
         C29       1.0000    0.78569   0.34700   0.76540   Biso      1.000     C          0.684229  
         C30       1.0000    0.64530   0.02300   0.00350   Biso      1.000     C          0.226946  
         C31       1.0000    0.14382   0.68600   0.66460   Biso      1.000     C          -0.165888           
         C32       1.0000    0.01466   0.46410   0.36590   Biso      1.000     C          -0.064494           
         C33       1.0000    0.94970   0.52240   0.59090   Biso      1.000     C          -0.059897           
         C34       1.0000    0.80168   0.84070   0.78650   Biso      1.000     C          0.584272  
         C35       1.0000    0.81149   0.46450   0.78920   Biso      1.000     C          -0.018069           
         C36       1.0000    0.73559   0.05450   0.63620   Biso      1.000     C          0.59565   
         C37       1.0000    0.52076   0.99670   0.50050   Biso      1.000     C          0.026433  
         C38       1.0000    0.85618   0.68600   0.83540   Biso      1.000     C          -0.165246           
         C39       1.0000    0.64530   0.97700   0.50350   Biso      1.000     C          0.226773  
         C40       1.0000    0.72463   0.96820   0.50410   Biso      1.000     C          -0.093248           
         C41       1.0000    0.97998   0.53260   0.90130   Biso      1.000     C          -0.071944           
         C42       1.0000    0.79626   0.59350   0.77740   Biso      1.000     C          -0.135019           
         C43       1.0000    0.90868   0.51640   0.96880   Biso      1.000     C          0.442045  
         C44       1.0000    0.98137   0.50690   0.97760   Biso      1.000     C          0.029151  
         C45       1.0000    0.87091   0.55810   0.84800   Biso      1.000     C          0.204064  
         C46       1.0000    0.54123   0.89750   0.54410   Biso      1.000     C          -0.055336           
         C47       1.0000    0.94970   0.47760   0.09090   Biso      1.000     C          -0.06037  
         C48       1.0000    0.81884   0.70220   0.79890   Biso      1.000     C          0.016803  
         C49       1.0000    0.70025   0.92250   0.44090   Biso      1.000     C          0.008885  
         C50       1.0000    0.84871   0.44920   0.82480   Biso      1.000     C          -0.165868           
         C51       1.0000    0.71735   0.87330   0.37090   Biso      1.000     C          0.678655  
         C52       1.0000    0.58467   0.88990   0.54610   Biso      1.000     C          0.443943  
         C53       1.0000    0.66873   0.01980   0.56670   Biso      1.000     C          -0.248321           
         C54       1.0000    0.47820   0.80820   0.91550   Biso      1.000     C          -0.084149           
         C55       1.0000    0.52180   0.19180   0.08450   Biso      1.000     C          -0.08413  
         C56       1.0000    0.01466   0.53590   0.86590   Biso      1.000     C          -0.064844           
         C57       1.0000    0.48153   0.18610   0.08290   Biso      1.000     C          -0.098248           
         C58       1.0000    0.53965   0.90960   0.96040   Biso      1.000     C          -0.067056           
         C59       1.0000    0.58343   0.91350   0.96030   Biso      1.000     C          0.439785  
         C60       1.0000    0.94173   0.45500   0.35360   Biso      1.000     C          0.443779  
         C61       1.0000    0.94719   0.49830   0.51420   Biso      1.000     C          -0.056    
         C62       1.0000    0.70915   0.01660   0.56760   Biso      1.000     C          0.018369  
         C63       1.0000    0.26441   0.05450   0.86380   Biso      1.000     C          0.595661  
         C64       1.0000    0.66005   0.92480   0.44170   Biso      1.000     C          -0.189073           
         C65       1.0000    0.19832   0.84070   0.71350   Biso      1.000     C          0.5828    
         C66       1.0000    0.12909   0.44190   0.15200   Biso      1.000     C          0.205287  
         C67       1.0000    0.01863   0.49310   0.02240   Biso      1.000     C          0.029146  
         C68       1.0000    0.18851   0.46450   0.71080   Biso      1.000     C          -0.018126           
         C69       1.0000    0.18116   0.70220   0.70110   Biso      1.000     C          0.017019  
         C70       1.0000    0.20374   0.40650   0.22260   Biso      1.000     C          -0.133706           
         C71       1.0000    0.02002   0.46740   0.09870   Biso      1.000     C          -0.072556           
         C72       1.0000    0.35470   0.02300   0.49650   Biso      1.000     C          0.227111  
         C73       1.0000    0.47924   0.00330   0.49950   Biso      1.000     C          0.026602  
         C74       1.0000    0.29085   0.01660   0.93240   Biso      1.000     C          0.017592  
         C75       1.0000    0.33995   0.07520   0.55830   Biso      1.000     C          -0.18885  
         C76       1.0000    0.21431   0.65300   0.23460   Biso      1.000     C          0.684856  
         C77       1.0000    0.19832   0.15930   0.21350   Biso      1.000     C          0.575216  
         C78       1.0000    0.18851   0.53550   0.21080   Biso      1.000     C          -0.018316           
         C79       1.0000    0.45877   0.10250   0.45590   Biso      1.000     C          -0.055481           
         C80       1.0000    0.26441   0.94550   0.36380   Biso      1.000     C          0.595799  
         C81       1.0000    0.14382   0.31400   0.16460   Biso      1.000     C          -0.165615           
         C82       1.0000    0.15129   0.44920   0.67520   Biso      1.000     C          -0.164751           
         C83       1.0000    0.27537   0.03180   0.49590   Biso      1.000     C          -0.09352  
         C84       1.0000    0.28265   0.87330   0.12910   Biso      1.000     C          0.678678  
         C85       1.0000    0.41533   0.88990   0.95390   Biso      1.000     C          0.444075  
         C86       1.0000    0.33127   0.01980   0.93330   Biso      1.000     C          -0.247983           
         C87       1.0000    0.98534   0.53590   0.63410   Biso      1.000     C          -0.064085           
         C88       1.0000    0.05030   0.47760   0.40910   Biso      1.000     C          -0.060205           
         C89       1.0000    0.05281   0.50170   0.48580   Biso      1.000     C          -0.056119           
         C90       1.0000    0.05827   0.54500   0.64640   Biso      1.000     C          0.443868  
         C91       1.0000    0.41657   0.08650   0.03970   Biso      1.000     C          0.440033  
         C92       1.0000    0.46035   0.09040   0.03960   Biso      1.000     C          -0.067367           
         C93       1.0000    0.51847   0.81390   0.91710   Biso      1.000     C          -0.09791  
         C94       1.0000    0.29975   0.92250   0.05910   Biso      1.000     C          0.008512  
         C95       1.0000    0.18116   0.29780   0.20110   Biso      1.000     C          0.017323  
         C96       1.0000    0.09132   0.48360   0.03120   Biso      1.000     C          0.442054  
         C97       1.0000    0.29975   0.07750   0.55910   Biso      1.000     C          0.009093  
         C98       1.0000    0.47924   0.99670   0.99950   Biso      1.000     C          0.025985  
         C99       1.0000    0.35470   0.97700   0.99650   Biso      1.000     C          0.227005  
         C100      1.0000    0.02002   0.53260   0.59870   Biso      1.000     C          -0.072506           
         C101      1.0000    0.33995   0.92480   0.05830   Biso      1.000     C          -0.188461           
         C102      1.0000    0.20374   0.59350   0.72260   Biso      1.000     C          -0.134169           
         C103      1.0000    0.47820   0.19180   0.41550   Biso      1.000     C          -0.083777           
         C104      1.0000    0.29085   0.98340   0.43240   Biso      1.000     C          0.018105  
         C105      1.0000    0.51847   0.18610   0.41710   Biso      1.000     C          -0.097432           
         C106      1.0000    0.46035   0.90960   0.53960   Biso      1.000     C          -0.065921           
         C107      1.0000    0.21431   0.34700   0.73460   Biso      1.000     C          0.684517  
         C108      1.0000    0.41657   0.91350   0.53970   Biso      1.000     C          0.440006  
         C109      1.0000    0.05281   0.49830   0.98580   Biso      1.000     C          -0.056316           
         C110      1.0000    0.05827   0.45500   0.14640   Biso      1.000     C          0.44391   
         C111      1.0000    0.05030   0.52240   0.90910   Biso      1.000     C          -0.060152           
         C112      1.0000    0.01863   0.50690   0.52240   Biso      1.000     C          0.029314  
         C113      1.0000    0.98534   0.46410   0.13410   Biso      1.000     C          -0.064567           
         C114      1.0000    0.12909   0.55810   0.65200   Biso      1.000     C          0.205059  
         C115      1.0000    0.33127   0.98020   0.43330   Biso      1.000     C          -0.248684           
         C116      1.0000    0.41533   0.11010   0.45390   Biso      1.000     C          0.444036  
         C117      1.0000    0.28265   0.12670   0.62910   Biso      1.000     C          0.67855   
         C118      1.0000    0.45877   0.89750   0.95590   Biso      1.000     C          -0.057285           
         C119      1.0000    0.15129   0.55080   0.17520   Biso      1.000     C          -0.164549           
         C120      1.0000    0.09132   0.51640   0.53120   Biso      1.000     C          0.441933  
         H1        1.0000    0.07320   0.47030   0.38580   Biso      1.000     H          0.134141  
         H2        1.0000    0.24830   0.96600   0.99660   Biso      1.000     H          0.14699   
         H3        1.0000    0.12870   0.75980   0.64860   Biso      1.000     H          0.144698  
         H4        1.0000    0.53270   0.73580   0.91190   Biso      1.000     H          0.129473  
         H5        1.0000    0.53490   0.76310   0.62540   Biso      1.000     H          0.131057  
         H6        1.0000    0.35650   0.89140   0.09890   Biso      1.000     H          0.134077  
         H7        1.0000    0.85900   0.36420   0.83320   Biso      1.000     H          0.143288  
         H8        1.0000    0.77070   0.60520   0.75490   Biso      1.000     H          0.116335  
         H9        1.0000    0.46730   0.73580   0.58810   Biso      1.000     H          0.130538  
         H10       1.0000    0.34110   0.04850   0.89660   Biso      1.000     H          0.124494  
         H11       1.0000    0.14100   0.36420   0.66680   Biso      1.000     H          0.143331  
         H12       1.0000    0.22930   0.60520   0.74510   Biso      1.000     H          0.116323  
         H13       1.0000    0.65890   0.04850   0.60340   Biso      1.000     H          0.124646  
         H14       1.0000    0.01020   0.54590   0.81250   Biso      1.000     H          0.121132  
         H15       1.0000    0.92680   0.47030   0.11420   Biso      1.000     H          0.134069  
         H16       1.0000    0.98980   0.54590   0.68750   Biso      1.000     H          0.121432  
         H17       1.0000    0.53490   0.23690   0.12540   Biso      1.000     H          0.130028  
         H18       1.0000    0.46510   0.76310   0.87460   Biso      1.000     H          0.130036  
         H19       1.0000    0.87130   0.75980   0.85140   Biso      1.000     H          0.144343  
         H20       1.0000    0.64350   0.10860   0.90110   Biso      1.000     H          0.133938  
         H21       1.0000    0.77070   0.39480   0.25490   Biso      1.000     H          0.116561  
         H22       1.0000    0.85900   0.63580   0.33320   Biso      1.000     H          0.143452  
         H23       1.0000    0.65890   0.95150   0.10340   Biso      1.000     H          0.124373  
         H24       1.0000    0.01020   0.45410   0.31250   Biso      1.000     H          0.121411  
         H25       1.0000    0.92680   0.52970   0.61420   Biso      1.000     H          0.134473  
         H26       1.0000    0.46730   0.26420   0.08810   Biso      1.000     H          0.129499  
         H27       1.0000    0.64350   0.89140   0.40110   Biso      1.000     H          0.134198  
         H28       1.0000    0.87130   0.24020   0.35140   Biso      1.000     H          0.144671  
         H29       1.0000    0.46510   0.23690   0.37460   Biso      1.000     H          0.131067  
         H30       1.0000    0.75170   0.03400   0.00340   Biso      1.000     H          0.147108  
         H31       1.0000    0.07320   0.52970   0.88580   Biso      1.000     H          0.13401   
         H32       1.0000    0.98980   0.45410   0.18750   Biso      1.000     H          0.121126  
         H33       1.0000    0.34110   0.95150   0.39660   Biso      1.000     H          0.124723  
         H34       1.0000    0.14100   0.63580   0.16680   Biso      1.000     H          0.143463  
         H35       1.0000    0.22930   0.39480   0.24510   Biso      1.000     H          0.1166    
         H36       1.0000    0.35650   0.10860   0.59890   Biso      1.000     H          0.134364  
         H37       1.0000    0.12870   0.24020   0.14860   Biso      1.000     H          0.144747  
         H38       1.0000    0.24830   0.03400   0.49660   Biso      1.000     H          0.1474    
         H39       1.0000    0.75170   0.96600   0.50340   Biso      1.000     H          0.146995  
         H40       1.0000    0.53270   0.26420   0.41190   Biso      1.000     H          0.130605  
         Mg1       1.0000    0.69643   0.71735   0.22383   Biso      1.000     Mg          1.514781  
         Mg2       1.0000    0.30357   0.28265   0.77617   Biso      1.000     Mg          1.514715  
         Mg3       1.0000    0.22581   0.06213   0.73681   Biso      1.000     Mg          1.333177  
         Mg4       1.0000    0.30357   0.71735   0.27617   Biso      1.000     Mg          1.514108  
         Mg5       1.0000    0.77419   0.93787   0.26319   Biso      1.000     Mg          1.333446  
         Mg6       1.0000    0.22581   0.93787   0.23681   Biso      1.000     Mg          1.333645  
         Mg7       1.0000    0.77419   0.06213   0.76319   Biso      1.000     Mg          1.333117  
         Mg8       1.0000    0.69643   0.28265   0.72383   Biso      1.000     Mg          1.513049  
         N1        1.0000    0.90895   0.45890   0.39215   Biso      1.000     N          -0.203573           
         N2        1.0000    0.09105   0.45890   0.10785   Biso      1.000     N          -0.203815           
         N3        1.0000    0.39782   0.01510   0.49630   Biso      1.000     N          -0.241212           
         N4        1.0000    0.90895   0.54110   0.89215   Biso      1.000     N          -0.202816           
         N5        1.0000    0.39782   0.98490   0.99630   Biso      1.000     N          -0.241503           
         N6        1.0000    0.09105   0.54110   0.60785   Biso      1.000     N          -0.203339           
         N7        1.0000    0.60218   0.01510   0.00370   Biso      1.000     N          -0.241389           
         N8        1.0000    0.60218   0.98490   0.50370   Biso      1.000     N          -0.241059           
         O1        1.0000    0.75026   0.91510   0.35994   Biso      1.000     O          -0.576831           
         O2        1.0000    0.76603   0.85010   0.76474   Biso      1.000     O          -0.659151           
         O3        1.0000    0.93812   0.56680   0.78580   Biso      1.000     O          -0.432748           
         O4        1.0000    0.87773   0.51010   0.99680   Biso      1.000     O          -0.437949           
         O5        1.0000    0.77160   0.03470   0.63973   Biso      1.000     O          -0.493762           
         O6        1.0000    0.80235   0.23450   0.76958   Biso      1.000     O          -0.622371           
         O7        1.0000    0.82291   0.94100   0.79729   Biso      1.000     O          -0.619681           
         O8        1.0000    0.12227   0.48990   0.00320   Biso      1.000     O          -0.437415           
         O9        1.0000    0.06188   0.43320   0.21420   Biso      1.000     O          -0.432513           
         O10       1.0000    0.23397   0.14990   0.23526   Biso      1.000     O          -0.647322           
         O11       1.0000    0.17709   0.05900   0.20271   Biso      1.000     O          -0.602417           
         O12       1.0000    0.19765   0.76550   0.23042   Biso      1.000     O          -0.623861           
         O13       1.0000    0.24974   0.08490   0.64006   Biso      1.000     O          -0.576001           
         O14       1.0000    0.22840   0.96530   0.36027   Biso      1.000     O          -0.495651           
         O15       1.0000    0.28002   0.90050   0.30710   Biso      1.000     O          -0.789192           
         O16       1.0000    0.39811   0.83590   0.57270   Biso      1.000     O          -0.427164           
         O17       1.0000    0.39631   0.19640   0.42000   Biso      1.000     O          -0.431966           
         O18       1.0000    0.30406   0.20550   0.67040   Biso      1.000     O          -0.759076           
         O19       1.0000    0.24922   0.63350   0.25515   Biso      1.000     O          -0.765393           
         O20       1.0000    0.71998   0.09950   0.69290   Biso      1.000     O          -0.788314           
         O21       1.0000    0.60189   0.16410   0.42730   Biso      1.000     O          -0.427015           
         O22       1.0000    0.75078   0.63350   0.24485   Biso      1.000     O          -0.765092           
         O23       1.0000    0.69594   0.79450   0.32960   Biso      1.000     O          -0.75891  
         O24       1.0000    0.87773   0.48990   0.49680   Biso      1.000     O          -0.436174           
         O25       1.0000    0.24922   0.36650   0.75515   Biso      1.000     O          -0.765082           
         O26       1.0000    0.30406   0.79450   0.17040   Biso      1.000     O          -0.758899           
         O27       1.0000    0.39631   0.80360   0.92000   Biso      1.000     O          -0.434119           
         O28       1.0000    0.39811   0.16410   0.07270   Biso      1.000     O          -0.429208           
         O29       1.0000    0.28002   0.09950   0.80710   Biso      1.000     O          -0.789035           
         O30       1.0000    0.22840   0.03470   0.86027   Biso      1.000     O          -0.494932           
         O31       1.0000    0.24974   0.91510   0.14006   Biso      1.000     O          -0.577179           
         O32       1.0000    0.19765   0.23450   0.73042   Biso      1.000     O          -0.622787           
         O33       1.0000    0.17709   0.94100   0.70271   Biso      1.000     O          -0.611269           
         O34       1.0000    0.23397   0.85010   0.73526   Biso      1.000     O          -0.653614           
         O35       1.0000    0.75078   0.36650   0.74485   Biso      1.000     O          -0.765221           
         O36       1.0000    0.12227   0.51010   0.50320   Biso      1.000     O          -0.436363           
         O37       1.0000    0.93812   0.43320   0.28580   Biso      1.000     O          -0.431638           
         O38       1.0000    0.76603   0.14990   0.26474   Biso      1.000     O          -0.648321           
         O39       1.0000    0.82291   0.05900   0.29729   Biso      1.000     O          -0.604266           
         O40       1.0000    0.80235   0.76550   0.26958   Biso      1.000     O          -0.623533           
         O41       1.0000    0.75026   0.08490   0.85994   Biso      1.000     O          -0.575215           
         O42       1.0000    0.77160   0.96530   0.13973   Biso      1.000     O          -0.495507           
         O43       1.0000    0.71998   0.90050   0.19290   Biso      1.000     O          -0.789297           
         O44       1.0000    0.60189   0.83590   0.92730   Biso      1.000     O          -0.428824           
         O45       1.0000    0.60369   0.19640   0.08000   Biso      1.000     O          -0.433981           
         O46       1.0000    0.69594   0.20550   0.82960   Biso      1.000     O          -0.758949           
         O47       1.0000    0.60369   0.80360   0.58000   Biso      1.000     O          -0.431476           
         O48       1.0000    0.06188   0.56680   0.71420   Biso      1.000     O          -0.431188 