
##########################################################################
#               Crystallographic Information Format file
#               Produced by PyCifRW module
#
#  This is a CIF file.  CIF has been adopted by the International
#  Union of Crystallography as the standard for data archiving and
#  transmission.
#
#  For information on this file format, follow the CIF links at
#  http://www.iucr.org
##########################################################################

data_image0

_cell_length_a                          14.1227
_cell_length_b                          18.7391
_cell_length_c                          18.7391
_cell_angle_alpha                       66.0878
_cell_angle_beta                        75.4506
_cell_angle_gamma                       104.549
_symmetry_space_group_name_H-M          'P 1'
_symmetry_int_tables_number             1
loop_
  _symmetry_equiv_pos_as_xyz
         'x, y, z' 
loop_
  _atom_site_label
  _atom_site_occupancy
  _atom_site_fract_x
  _atom_site_fract_y
  _atom_site_fract_z
  _atom_site_thermal_displace_type
  _atom_site_B_iso_or_equiv
  _atom_site_type_symbol
  _atom_site_charge
         C1        1.0000    0.01281   0.57830   0.37987   Biso      1.000     C          0.078751  
         C2        1.0000    0.79120   0.29950   0.56900   Biso      1.000     C          -0.051086           
         C3        1.0000    0.73810   0.00000   0.63100   Biso      1.000     C          0.594596  
         C4        1.0000    0.46280   0.13540   0.65450   Biso      1.000     C          -0.169213           
         C5        1.0000    0.04740   0.39975   0.86605   Biso      1.000     C          0.177394  
         C6        1.0000    0.31830   0.48500   0.27700   Biso      1.000     C          0.080312  
         C7        1.0000    0.86600   0.29700   0.50860   Biso      1.000     C          -0.05609  
         C8        1.0000    0.36600   0.49140   0.70300   Biso      1.000     C          -0.056086000000000004         
         C9        1.0000    0.77030   0.90990   0.75600   Biso      1.000     C          -0.049475           
         C10       1.0000    0.96980   0.81100   0.76300   Biso      1.000     C          0.18087899999999998           
         C11       1.0000    0.82740   0.86460   0.78990   Biso      1.000     C          -0.171424           
         C12       1.0000    0.80240   0.95570   0.67010   Biso      1.000     C          -0.059395           
         C13       1.0000    0.78840   0.84660   0.39890   Biso      1.000     C          -0.16946  
         C14       1.0000    0.52630   0.75600   0.33410   Biso      1.000     C          -0.048284           
         C15       1.0000    0.28840   0.60110   0.15340   Biso      1.000     C          -0.169479           
         C16       1.0000    0.41345   0.26580   0.13395   Biso      1.000     C          0.176222  
         C17       1.0000    0.91345   0.86605   0.73420   Biso      1.000     C          0.176216  
         C18       1.0000    0.09530   0.76200   0.72300   Biso      1.000     C          0.07975499999999999           
         C19       1.0000    0.44180   0.15340   0.24550   Biso      1.000     C          -0.170023           
         C20       1.0000    0.14765   0.60025   0.26580   Biso      1.000     C          0.17891700000000002           
         C21       1.0000    0.23810   0.36900   0.00000   Biso      1.000     C          0.594591  
         C22       1.0000    0.18730   0.39890   0.75450   Biso      1.000     C          -0.168505           
         C23       1.0000    0.36020   0.56900   0.13150   Biso      1.000     C          -0.052063           
         C24       1.0000    0.84670   0.37420   0.95570   Biso      1.000     C          -0.05935599999999999          
         C25       1.0000    0.33330   0.51500   0.76200   Biso      1.000     C          0.080478  
         C26       1.0000    0.46980   0.23700   0.18900   Biso      1.000     C          0.18087   
         C27       1.0000    0.34670   0.04430   0.62580   Biso      1.000     C          -0.059354           
         C28       1.0000    0.02630   0.66590   0.24400   Biso      1.000     C          -0.048291           
         C29       1.0000    0.43451   0.04183   0.57830   Biso      1.000     C          0.078224  
         C30       1.0000    0.86020   0.86850   0.43100   Biso      1.000     C          -0.052079999999999994         
         C31       1.0000    0.30240   0.32990   0.04430   Biso      1.000     C          -0.059386           
         C32       1.0000    0.87460   0.80560   0.49140   Biso      1.000     C          -0.055422000000000006         
         C33       1.0000    0.94180   0.75450   0.84660   Biso      1.000     C          -0.170017           
         C34       1.0000    0.62400   0.17690   0.35600   Biso      1.000     C          0.59232   
         C35       1.0000    0.97250   0.62580   0.32990   Biso      1.000     C          -0.061569000000000006         
         C36       1.0000    0.36040   0.09010   0.66590   Biso      1.000     C          -0.052022000000000006         
         C37       1.0000    0.65880   0.18900   0.57400   Biso      1.000     C          0.178511  
         C38       1.0000    0.27030   0.24400   0.09010   Biso      1.000     C          -0.049498           
         C39       1.0000    0.94710   0.82310   0.53290   Biso      1.000     C          0.58915   
         C40       1.0000    0.64765   0.73420   0.39975   Biso      1.000     C          0.17895899999999998           
         C41       1.0000    0.61730   0.78990   0.34550   Biso      1.000     C          -0.17268  
         C42       1.0000    0.99170   0.70050   0.86850   Biso      1.000     C          -0.050798           
         C43       1.0000    0.37460   0.50860   0.19440   Biso      1.000     C          -0.055449           
         C44       1.0000    0.54740   0.13395   0.60025   Biso      1.000     C          0.17741500000000002           
         C45       1.0000    0.47250   0.67010   0.37420   Biso      1.000     C          -0.061577999999999994         
         C46       1.0000    0.86910   0.63100   0.36900   Biso      1.000     C          0.595122  
         C47       1.0000    0.11730   0.65450   0.21010   Biso      1.000     C          -0.1727   
         C48       1.0000    0.39268   0.37987   0.04183   Biso      1.000     C          0.076592  
         C49       1.0000    0.56900   0.19440   0.29700   Biso      1.000     C          -0.057405           
         C50       1.0000    0.98000   0.35600   0.46710   Biso      1.000     C          0.589471  
         C51       1.0000    0.44710   0.46710   0.17690   Biso      1.000     C          0.589159  
         C52       1.0000    0.81830   0.72300   0.51500   Biso      1.000     C          0.080314  
         C53       1.0000    0.49170   0.13150   0.29950   Biso      1.000     C          -0.050789           
         C54       1.0000    0.48000   0.53290   0.64400   Biso      1.000     C          0.589468  
         C55       1.0000    0.86040   0.33410   0.90990   Biso      1.000     C          -0.052039           
         C56       1.0000    0.59530   0.27700   0.23800   Biso      1.000     C          0.07974400000000001           
         C57       1.0000    0.32740   0.21010   0.13540   Biso      1.000     C          -0.171423           
         C58       1.0000    0.83330   0.23800   0.48500   Biso      1.000     C          0.080486  
         C59       1.0000    0.96280   0.34550   0.86460   Biso      1.000     C          -0.16918  
         C60       1.0000    0.51281   0.62013   0.42170   Biso      1.000     C          0.078822  
         C61       1.0000    0.29120   0.43100   0.70050   Biso      1.000     C          -0.051092           
         C62       1.0000    0.73810   0.36900   0.00000   Biso      1.000     C          0.593709  
         C63       1.0000    0.73280   0.76300   0.42600   Biso      1.000     C          0.17883   
         C64       1.0000    0.93451   0.42170   0.95817   Biso      1.000     C          0.07823300000000001           
         C65       1.0000    0.23280   0.57400   0.23700   Biso      1.000     C          0.178872  
         C66       1.0000    0.36910   0.63100   0.36900   Biso      1.000     C          0.595125  
         C67       1.0000    0.23810   0.00000   0.63100   Biso      1.000     C          0.5937020000000001  
         C68       1.0000    0.89268   0.95817   0.62013   Biso      1.000     C          0.076589  
         C69       1.0000    0.12400   0.64400   0.82310   Biso      1.000     C          0.592342  
         C70       1.0000    0.06900   0.70300   0.80560   Biso      1.000     C          -0.057437           
         C71       1.0000    0.15880   0.42600   0.81100   Biso      1.000     C          0.178521  
         C72       1.0000    0.68730   0.24550   0.60110   Biso      1.000     C          -0.168495           
         H1        1.0000    0.38380   0.55550   0.76470   Biso      1.000     H          0.101162  
         H2        1.0000    0.21040   0.20810   0.09110   Biso      1.000     H          0.12345899999999999           
         H3        1.0000    0.47350   0.07470   0.33750   Biso      1.000     H          0.122554  
         H4        1.0000    0.27730   0.64190   0.11110   Biso      1.000     H          0.12440899999999999           
         H5        1.0000    0.32830   0.44450   0.32020   Biso      1.000     H          0.101426  
         H6        1.0000    0.71040   0.90890   0.79190   Biso      1.000     H          0.123447  
         H7        1.0000    0.13540   0.35810   0.75300   Biso      1.000     H          0.12425   
         H8        1.0000    0.47790   0.56130   0.44750   Biso      1.000     H          0.096877  
         H9        1.0000    0.89880   0.92530   0.41220   Biso      1.000     H          0.12328399999999999           
         H10       1.0000    0.63540   0.24700   0.64190   Biso      1.000     H          0.12424400000000001           
         H11       1.0000    0.42540   0.00880   0.55250   Biso      1.000     H          0.097603  
         H12       1.0000    0.39880   0.58780   0.07470   Biso      1.000     H          0.12328099999999999           
         H13       1.0000    0.88380   0.23530   0.44450   Biso      1.000     H          0.101154  
         H14       1.0000    0.65620   0.84840   0.31730   Biso      1.000     H          0.132606  
         H15       1.0000    0.30780   0.15160   0.16570   Biso      1.000     H          0.13256800000000002           
         H16       1.0000    0.77730   0.88890   0.35810   Biso      1.000     H          0.124404  
         H17       1.0000    0.30150   0.09110   0.70080   Biso      1.000     H          0.12401400000000001           
         H18       1.0000    0.38840   0.11110   0.24700   Biso      1.000     H          0.124338  
         H19       1.0000    0.14850   0.76470   0.67980   Biso      1.000     H          0.10185   
         H20       1.0000    0.97790   0.55250   0.43870   Biso      1.000     H          0.096932  
         H21       1.0000    0.47350   0.16570   0.68270   Biso      1.000     H          0.13203199999999998           
         H22       1.0000    0.97350   0.66250   0.92530   Biso      1.000     H          0.12255799999999999           
         H23       1.0000    0.41660   0.43870   0.00880   Biso      1.000     H          0.09756799999999999           
         H24       1.0000    0.00230   0.70080   0.20810   Biso      1.000     H          0.12347799999999999           
         H25       1.0000    0.64850   0.32020   0.23530   Biso      1.000     H          0.10185599999999999           
         H26       1.0000    0.50230   0.79190   0.29920   Biso      1.000     H          0.12347999999999999           
         H27       1.0000    0.80780   0.83430   0.84840   Biso      1.000     H          0.13256300000000001           
         H28       1.0000    0.80150   0.29920   0.90890   Biso      1.000     H          0.124018  
         H29       1.0000    0.88840   0.75300   0.88890   Biso      1.000     H          0.124332  
         H30       1.0000    0.81100   0.33750   0.58780   Biso      1.000     H          0.12206199999999999           
         H31       1.0000    0.92540   0.44750   0.99120   Biso      1.000     H          0.097592  
         H32       1.0000    0.97350   0.31730   0.83430   Biso      1.000     H          0.132026  
         H33       1.0000    0.15620   0.68270   0.15160   Biso      1.000     H          0.132633  
         H34       1.0000    0.31100   0.41220   0.66250   Biso      1.000     H          0.12205899999999999           
         H35       1.0000    0.82830   0.67980   0.55550   Biso      1.000     H          0.101421  
         H36       1.0000    0.91660   0.99120   0.56130   Biso      1.000     H          0.097567  
         In1       1.0000    0.16726   0.48778   0.43389   Biso      1.000     In          0.935817  
         In2       1.0000    0.66726   0.56611   0.51222   Biso      1.000     In          0.935831  
         In3       1.0000    0.67948   0.07833   0.48778   Biso      1.000     In          0.935517  
         In4       1.0000    0.10115   0.92167   0.56611   Biso      1.000     In          0.9342590000000001  
         In5       1.0000    0.60115   0.43389   0.07833   Biso      1.000     In          0.93425   
         In6       1.0000    0.17948   0.51222   0.92167   Biso      1.000     In          0.935541  
         N1        1.0000    0.23153   0.48214   0.81575   Biso      1.000     N          -0.237956           
         N2        1.0000    0.24939   0.51786   0.29789   Biso      1.000     N          -0.23850900000000003          
         N3        1.0000    0.59924   0.65089   0.43317   Biso      1.000     N          -0.25510900000000003          
         N4        1.0000    0.94835   0.91594   0.65089   Biso      1.000     N          -0.253474           
         N5        1.0000    0.09924   0.56683   0.34911   Biso      1.000     N          -0.25509  
         N6        1.0000    0.73153   0.18425   0.51786   Biso      1.000     N          -0.237952           
         N7        1.0000    0.74939   0.70211   0.48214   Biso      1.000     N          -0.238508           
         N8        1.0000    0.04728   0.81575   0.70211   Biso      1.000     N          -0.23827199999999998          
         N9        1.0000    0.54728   0.29789   0.18425   Biso      1.000     N          -0.238267           
         N10       1.0000    0.53241   0.08406   0.56683   Biso      1.000     N          -0.2551   
         N11       1.0000    0.03241   0.43317   0.91594   Biso      1.000     N          -0.25511799999999996          
         N12       1.0000    0.44835   0.34911   0.08406   Biso      1.000     N          -0.253469           
         O1        1.0000    0.83690   0.67770   0.32510   Biso      1.000     O          -0.551654           
         O2        1.0000    0.44280   0.40330   0.23280   Biso      1.000     O          -0.537827           
         O3        1.0000    0.27015   0.44794   0.97019   Biso      1.000     O          -0.604336           
         O4        1.0000    0.94280   0.76720   0.59670   Biso      1.000     O          -0.537827           
         O5        1.0000    0.24034   0.97019   0.58187   Biso      1.000     O          -0.603772           
         O6        1.0000    0.17560   0.63610   0.76720   Biso      1.000     O          -0.538772           
         O7        1.0000    0.33690   0.67490   0.32230   Biso      1.000     O          -0.5516439999999999           
         O8        1.0000    0.82221   0.58187   0.44794   Biso      1.000     O          -0.604496           
         O9        1.0000    0.74034   0.41813   0.02981   Biso      1.000     O          -0.603765           
         O10       1.0000    0.67560   0.23280   0.36390   Biso      1.000     O          -0.538764           
         O11       1.0000    0.61010   0.09955   0.39835   Biso      1.000     O          -0.592797           
         O12       1.0000    0.77015   0.02981   0.55206   Biso      1.000     O          -0.604344           
         O13       1.0000    0.53950   0.59670   0.63610   Biso      1.000     O          -0.537532           
         O14       1.0000    0.32221   0.55206   0.41813   Biso      1.000     O          -0.6045   
         O15       1.0000    0.16200   0.32510   0.99720   Biso      1.000     O          -0.551647           
         O16       1.0000    0.66200   0.00280   0.67490   Biso      1.000     O          -0.551639           
         O17       1.0000    0.00845   0.39835   0.50210   Biso      1.000     O          -0.592033           
         O18       1.0000    0.11010   0.60165   0.90045   Biso      1.000     O          -0.592788           
         O19       1.0000    0.50845   0.49790   0.60165   Biso      1.000     O          -0.592026           
         O20       1.0000    0.01055   0.90045   0.49790   Biso      1.000     O          -0.591508           
         O21       1.0000    0.15920   0.99720   0.67770   Biso      1.000     O          -0.551409           
         O22       1.0000    0.03950   0.36390   0.40330   Biso      1.000     O          -0.537528           
         O23       1.0000    0.51055   0.50210   0.09955   Biso      1.000     O          -0.591497           
         O24       1.0000    0.65920   0.32230   0.00280   Biso      1.000     O          -0.551415 