
##########################################################################
#               Crystallographic Information Format file
#               Produced by PyCifRW module
#
#  This is a CIF file.  CIF has been adopted by the International
#  Union of Crystallography as the standard for data archiving and
#  transmission.
#
#  For information on this file format, follow the CIF links at
#  http://www.iucr.org
##########################################################################

data_image0

_cell_length_a                          14.5952
_cell_length_b                          16.7329
_cell_length_c                          19.5713
_cell_angle_alpha                       90
_cell_angle_beta                        107.344
_cell_angle_gamma                       90
_symmetry_space_group_name_H-M          'P 1'
_symmetry_int_tables_number             1
loop_
  _symmetry_equiv_pos_as_xyz
         'x, y, z' 
loop_
  _atom_site_label
  _atom_site_occupancy
  _atom_site_fract_x
  _atom_site_fract_y
  _atom_site_fract_z
  _atom_site_thermal_displace_type
  _atom_site_B_iso_or_equiv
  _atom_site_type_symbol
  _atom_site_charge
         C1        1.0000    0.86560   0.32530   0.88710   Biso      1.000     C          -0.040538           
         C2        1.0000    0.91770   0.93730   0.75670   Biso      1.000     C          0.612416  
         C3        1.0000    0.43760   0.23970   0.50480   Biso      1.000     C          -0.010641           
         C4        1.0000    0.98940   0.06960   0.73940   Biso      1.000     C          -0.135494           
         C5        1.0000    0.02610   0.12290   0.70080   Biso      1.000     C          -0.006033           
         C6        1.0000    0.34570   0.25170   0.50930   Biso      1.000     C          -0.155249           
         C7        1.0000    0.03160   0.10020   0.63190   Biso      1.000     C          -0.147423           
         C8        1.0000    0.99940   0.02670   0.60150   Biso      1.000     C          0.154855  
         C9        1.0000    0.96370   0.97290   0.64130   Biso      1.000     C          -0.141815           
         C10       1.0000    0.95640   0.99210   0.71040   Biso      1.000     C          -0.014165           
         C11       1.0000    0.25640   0.82280   0.61420   Biso      1.000     C          0.626905  
         C12       1.0000    0.11660   0.68660   0.37910   Biso      1.000     C          0.648232  
         C13       1.0000    0.26470   0.22440   0.45610   Biso      1.000     C          0.143289  
         C14       1.0000    0.08500   0.78500   0.57020   Biso      1.000     C          -0.142205           
         C15       1.0000    0.05330   0.20270   0.73340   Biso      1.000     C          0.583987  
         C16       1.0000    0.17460   0.78710   0.55920   Biso      1.000     C          -0.008178           
         C17       1.0000    0.18560   0.75340   0.49470   Biso      1.000     C          -0.105842           
         C18       1.0000    0.10620   0.71900   0.44680   Biso      1.000     C          -0.038559           
         C19       1.0000    0.01580   0.71750   0.45820   Biso      1.000     C          -0.157453           
         C20       1.0000    0.00370   0.75060   0.52220   Biso      1.000     C          0.140632  
         C21       1.0000    0.90860   0.75210   0.52960   Biso      1.000     C          -0.111986           
         C22       1.0000    0.83130   0.76190   0.53660   Biso      1.000     C          -0.097858           
         C23       1.0000    0.47960   0.72470   0.44010   Biso      1.000     C          0.595237  
         C24       1.0000    0.58500   0.71500   0.07020   Biso      1.000     C          -0.142205           
         C25       1.0000    0.37280   0.12850   0.32360   Biso      1.000     C          0.683534  
         C26       1.0000    0.72770   0.81360   0.60610   Biso      1.000     C          -0.160244           
         C27       1.0000    0.73530   0.77560   0.54390   Biso      1.000     C          0.143274  
         C28       1.0000    0.52040   0.27530   0.55990   Biso      1.000     C          0.595237  
         C29       1.0000    0.65430   0.74830   0.49070   Biso      1.000     C          -0.155251           
         C30       1.0000    0.27230   0.18640   0.39390   Biso      1.000     C          -0.160243           
         C31       1.0000    0.00010   0.00800   0.52910   Biso      1.000     C          -0.097391           
         C32       1.0000    0.37190   0.05410   0.61830   Biso      1.000     C          -0.125515           
         C33       1.0000    0.44660   0.20220   0.44220   Biso      1.000     C          -0.097495           
         C34       1.0000    0.68560   0.74660   0.99470   Biso      1.000     C          -0.105842           
         C35       1.0000    0.60620   0.78100   0.94680   Biso      1.000     C          -0.038559           
         C36       1.0000    0.51580   0.78250   0.95820   Biso      1.000     C          -0.157453           
         C37       1.0000    0.50370   0.74940   0.02220   Biso      1.000     C          0.140632  
         C38       1.0000    0.40860   0.74790   0.02960   Biso      1.000     C          -0.111986           
         C39       1.0000    0.33130   0.73810   0.03660   Biso      1.000     C          -0.097858           
         C40       1.0000    0.97960   0.77530   0.94010   Biso      1.000     C          0.595237  
         C41       1.0000    0.12720   0.62850   0.17640   Biso      1.000     C          0.683534  
         C42       1.0000    0.61660   0.81340   0.87910   Biso      1.000     C          0.648232  
         C43       1.0000    0.22770   0.68640   0.10610   Biso      1.000     C          -0.160244           
         C44       1.0000    0.23530   0.72440   0.04390   Biso      1.000     C          0.143274  
         C45       1.0000    0.75640   0.67720   0.11420   Biso      1.000     C          0.626905  
         C46       1.0000    0.15430   0.75170   0.99070   Biso      1.000     C          -0.155251           
         C47       1.0000    0.06240   0.73970   0.99520   Biso      1.000     C          -0.01064  
         C48       1.0000    0.45640   0.50790   0.21040   Biso      1.000     C          -0.014168           
         C49       1.0000    0.05340   0.70220   0.05780   Biso      1.000     C          -0.097494           
         C50       1.0000    0.13440   0.67470   0.11290   Biso      1.000     C          -0.040538           
         C51       1.0000    0.46370   0.52710   0.14130   Biso      1.000     C          -0.141815           
         C52       1.0000    0.49940   0.47330   0.10150   Biso      1.000     C          0.154855  
         C53       1.0000    0.53160   0.39980   0.13190   Biso      1.000     C          -0.147422           
         C54       1.0000    0.52610   0.37710   0.20080   Biso      1.000     C          -0.00604  
         C55       1.0000    0.48940   0.43040   0.23940   Biso      1.000     C          -0.135485           
         C56       1.0000    0.41770   0.56270   0.25670   Biso      1.000     C          0.612416  
         C57       1.0000    0.55330   0.29730   0.23340   Biso      1.000     C          0.583988  
         C58       1.0000    0.50010   0.49200   0.02910   Biso      1.000     C          -0.09739  
         C59       1.0000    0.87190   0.44590   0.11830   Biso      1.000     C          -0.125515           
         C60       1.0000    0.86480   0.50100   0.36850   Biso      1.000     C          -0.158987           
         C61       1.0000    0.36480   0.99900   0.86850   Biso      1.000     C          -0.158987           
         C62       1.0000    0.36560   0.17470   0.38710   Biso      1.000     C          -0.04054  
         C63       1.0000    0.56240   0.76030   0.49520   Biso      1.000     C          -0.01064  
         C64       1.0000    0.16870   0.23810   0.46340   Biso      1.000     C          -0.097982           
         C65       1.0000    0.62720   0.87150   0.67640   Biso      1.000     C          0.683534  
         C66       1.0000    0.63440   0.82530   0.61290   Biso      1.000     C          -0.040538           
         C67       1.0000    0.62810   0.94590   0.38170   Biso      1.000     C          -0.125515           
         C68       1.0000    0.51060   0.56960   0.76060   Biso      1.000     C          -0.135493           
         C69       1.0000    0.47390   0.62290   0.79920   Biso      1.000     C          -0.006032           
         C70       1.0000    0.46840   0.60020   0.86810   Biso      1.000     C          -0.147424           
         C71       1.0000    0.55340   0.79780   0.55780   Biso      1.000     C          -0.097495           
         C72       1.0000    0.50060   0.52670   0.89850   Biso      1.000     C          0.154837  
         C73       1.0000    0.53630   0.47290   0.85870   Biso      1.000     C          -0.141816           
         C74       1.0000    0.54360   0.49210   0.78960   Biso      1.000     C          -0.014164           
         C75       1.0000    0.24360   0.32280   0.88580   Biso      1.000     C          0.626905  
         C76       1.0000    0.38340   0.18660   0.12090   Biso      1.000     C          0.648232  
         C77       1.0000    0.41500   0.28500   0.92980   Biso      1.000     C          -0.142205           
         C78       1.0000    0.32540   0.28710   0.94080   Biso      1.000     C          -0.008178           
         C79       1.0000    0.58230   0.43730   0.74330   Biso      1.000     C          0.612416  
         C80       1.0000    0.63520   0.00100   0.13150   Biso      1.000     C          -0.158987           
         C81       1.0000    0.39380   0.21900   0.05320   Biso      1.000     C          -0.03856  
         C82       1.0000    0.48420   0.21750   0.04180   Biso      1.000     C          -0.157453           
         C83       1.0000    0.49630   0.25060   0.97780   Biso      1.000     C          0.140632  
         C84       1.0000    0.59140   0.25210   0.97040   Biso      1.000     C          -0.111986           
         C85       1.0000    0.66870   0.26190   0.96340   Biso      1.000     C          -0.097858           
         C86       1.0000    0.02040   0.22470   0.05990   Biso      1.000     C          0.595237  
         C87       1.0000    0.87280   0.37150   0.82360   Biso      1.000     C          0.683534  
         C88       1.0000    0.77230   0.31360   0.89390   Biso      1.000     C          -0.160244           
         C89       1.0000    0.76470   0.27560   0.95610   Biso      1.000     C          0.143274  
         C90       1.0000    0.84570   0.24830   0.00930   Biso      1.000     C          -0.155251           
         C91       1.0000    0.93760   0.26030   0.00480   Biso      1.000     C          -0.01064  
         C92       1.0000    0.94660   0.29780   0.94220   Biso      1.000     C          -0.097495           
         C93       1.0000    0.31440   0.25340   0.00530   Biso      1.000     C          -0.105841           
         C94       1.0000    0.44670   0.70270   0.76660   Biso      1.000     C          0.583988  
         C95       1.0000    0.67460   0.71290   0.05920   Biso      1.000     C          -0.008178           
         C96       1.0000    0.12810   0.55410   0.88170   Biso      1.000     C          -0.125515           
         C97       1.0000    0.03630   0.02710   0.35870   Biso      1.000     C          -0.141816           
         C98       1.0000    0.49990   0.50800   0.97090   Biso      1.000     C          -0.097236           
         C99       1.0000    0.88340   0.31340   0.62090   Biso      1.000     C          0.648232  
         C100      1.0000    0.00060   0.97330   0.39850   Biso      1.000     C          0.154836  
         C101      1.0000    0.96840   0.89980   0.36810   Biso      1.000     C          -0.147423           
         C102      1.0000    0.91500   0.21500   0.42980   Biso      1.000     C          -0.142205           
         C103      1.0000    0.97390   0.87710   0.29920   Biso      1.000     C          -0.006039           
         C104      1.0000    0.82540   0.21290   0.44080   Biso      1.000     C          -0.008177           
         C105      1.0000    0.81440   0.24660   0.50530   Biso      1.000     C          -0.105842           
         C106      1.0000    0.04360   0.00790   0.28960   Biso      1.000     C          -0.014166           
         C107      1.0000    0.01060   0.93040   0.26060   Biso      1.000     C          -0.135485           
         C108      1.0000    0.74360   0.17720   0.38580   Biso      1.000     C          0.626905  
         C109      1.0000    0.98420   0.28250   0.54180   Biso      1.000     C          -0.157455           
         C110      1.0000    0.99990   0.99200   0.47090   Biso      1.000     C          -0.097236           
         C111      1.0000    0.99630   0.24940   0.47780   Biso      1.000     C          0.140617  
         C112      1.0000    0.94670   0.79730   0.26660   Biso      1.000     C          0.583988  
         C113      1.0000    0.13520   0.49900   0.63150   Biso      1.000     C          -0.158987           
         C114      1.0000    0.89380   0.28100   0.55320   Biso      1.000     C          -0.038559           
         C115      1.0000    0.09140   0.24790   0.47040   Biso      1.000     C          -0.111862           
         C116      1.0000    0.08230   0.06270   0.24330   Biso      1.000     C          0.612416  
         H1        1.0000    0.03630   0.30520   0.57600   Biso      1.000     H          0.123284  
         H2        1.0000    0.21790   0.16950   0.35830   Biso      1.000     H          0.133225  
         H3        1.0000    0.56880   0.99030   0.10730   Biso      1.000     H          0.135286  
         H4        1.0000    0.92140   0.19230   0.38810   Biso      1.000     H          0.133583  
         H5        1.0000    0.57860   0.69230   0.11190   Biso      1.000     H          0.133584  
         H6        1.0000    0.75550   0.24540   0.51450   Biso      1.000     H          0.142773  
         H7        1.0000    0.66520   0.95360   0.15560   Biso      1.000     H          0.152307  
         H8        1.0000    0.63530   0.99610   0.28320   Biso      1.000     H          0.363783  
         H9        1.0000    0.66680   0.01720   0.09720   Biso      1.000     H          0.14812   
         H10       1.0000    0.55760   0.36400   0.10640   Biso      1.000     H          0.121731  
         H11       1.0000    0.05610   0.07740   0.37770   Biso      1.000     H          0.124596  
         H12       1.0000    0.50750   0.19540   0.43710   Biso      1.000     H          0.14028   
         H13       1.0000    0.58670   0.96090   0.40950   Biso      1.000     H          0.154644  
         H14       1.0000    0.33770   0.27860   0.54870   Biso      1.000     H          0.134791  
         H15       1.0000    0.90600   0.59930   0.32650   Biso      1.000     H          0.317608  
         H16       1.0000    0.01410   0.91620   0.21550   Biso      1.000     H          0.135083  
         H17       1.0000    0.83480   0.45360   0.34440   Biso      1.000     H          0.152307  
         H18       1.0000    0.83320   0.51720   0.40280   Biso      1.000     H          0.14812   
         H19       1.0000    0.93120   0.49030   0.39270   Biso      1.000     H          0.135286  
         H20       1.0000    0.80660   0.44470   0.08810   Biso      1.000     H          0.140675  
         H21       1.0000    0.88970   0.39380   0.13860   Biso      1.000     H          0.133179  
         H22       1.0000    0.91330   0.46090   0.09050   Biso      1.000     H          0.154644  
         H23       1.0000    0.61030   0.89380   0.36140   Biso      1.000     H          0.133179  
         H24       1.0000    0.94240   0.86400   0.39360   Biso      1.000     H          0.12173   
         H25       1.0000    0.48590   0.41620   0.28450   Biso      1.000     H          0.135083  
         H26       1.0000    0.69340   0.94470   0.41190   Biso      1.000     H          0.140675  
         H27       1.0000    0.44390   0.57740   0.12230   Biso      1.000     H          0.124597  
         H28       1.0000    0.86470   0.49610   0.21680   Biso      1.000     H          0.363784  
         H29       1.0000    0.40600   0.90070   0.82650   Biso      1.000     H          0.317608  
         H30       1.0000    0.46370   0.80520   0.92400   Biso      1.000     H          0.123285  
         H31       1.0000    0.30660   0.05530   0.58810   Biso      1.000     H          0.140675  
         H32       1.0000    0.38970   0.10620   0.63860   Biso      1.000     H          0.133179  
         H33       1.0000    0.41330   0.03910   0.59050   Biso      1.000     H          0.154644  
         H34       1.0000    0.98590   0.08380   0.78450   Biso      1.000     H          0.135084  
         H35       1.0000    0.05760   0.13600   0.60640   Biso      1.000     H          0.121731  
         H36       1.0000    0.94390   0.92260   0.62230   Biso      1.000     H          0.124597  
         H37       1.0000    0.07860   0.80770   0.61190   Biso      1.000     H          0.133584  
         H38       1.0000    0.24450   0.75460   0.48550   Biso      1.000     H          0.142773  
         H39       1.0000    0.96370   0.69480   0.42400   Biso      1.000     H          0.123285  
         H40       1.0000    0.78210   0.83050   0.64170   Biso      1.000     H          0.133224  
         H41       1.0000    0.74450   0.74540   0.98550   Biso      1.000     H          0.142773  
         H42       1.0000    0.49250   0.80460   0.56290   Biso      1.000     H          0.14028   
         H43       1.0000    0.09400   0.40070   0.67350   Biso      1.000     H          0.317608  
         H44       1.0000    0.13530   0.50390   0.78320   Biso      1.000     H          0.363783  
         H45       1.0000    0.16520   0.54640   0.65560   Biso      1.000     H          0.152308  
         H46       1.0000    0.16680   0.48280   0.59720   Biso      1.000     H          0.14812   
         H47       1.0000    0.06880   0.50970   0.60730   Biso      1.000     H          0.135286  
         H48       1.0000    0.19340   0.55530   0.91190   Biso      1.000     H          0.140675  
         H49       1.0000    0.11030   0.60620   0.86140   Biso      1.000     H          0.133179  
         H50       1.0000    0.08670   0.53910   0.90950   Biso      1.000     H          0.154644  
         H51       1.0000    0.51410   0.58380   0.71550   Biso      1.000     H          0.135084  
         H52       1.0000    0.44240   0.63600   0.89360   Biso      1.000     H          0.12173   
         H53       1.0000    0.55610   0.42260   0.87770   Biso      1.000     H          0.124596  
         H54       1.0000    0.42140   0.30770   0.88810   Biso      1.000     H          0.133584  
         H55       1.0000    0.25550   0.25460   0.01450   Biso      1.000     H          0.142773  
         H56       1.0000    0.53630   0.19480   0.07600   Biso      1.000     H          0.123285  
         H57       1.0000    0.71790   0.33050   0.85830   Biso      1.000     H          0.133224  
         H58       1.0000    0.83770   0.22140   0.04870   Biso      1.000     H          0.134791  
         H59       1.0000    0.00750   0.30460   0.93710   Biso      1.000     H          0.14028   
         H60       1.0000    0.43120   0.00970   0.89270   Biso      1.000     H          0.135286  
         H61       1.0000    0.33320   0.98280   0.90280   Biso      1.000     H          0.14812   
         H62       1.0000    0.66230   0.72140   0.45130   Biso      1.000     H          0.134791  
         H63       1.0000    0.59400   0.09930   0.17350   Biso      1.000     H          0.317608  
         H64       1.0000    0.28210   0.66950   0.14170   Biso      1.000     H          0.133224  
         H65       1.0000    0.36470   0.00390   0.71680   Biso      1.000     H          0.363783  
         H66       1.0000    0.99250   0.69540   0.06290   Biso      1.000     H          0.14028   
         H67       1.0000    0.16230   0.77860   0.95130   Biso      1.000     H          0.134791  
         H68       1.0000    0.33480   0.04640   0.84440   Biso      1.000     H          0.152308  
         Nd1       1.0000    0.17618   0.15692   0.16885   Biso      1.000     Nd          2.098346  
         Nd2       1.0000    0.57771   0.13581   0.27086   Biso      1.000     Nd          2.021587  
         Nd3       1.0000    0.07771   0.36419   0.77086   Biso      1.000     Nd          2.021588  
         Nd4       1.0000    0.42229   0.86419   0.72914   Biso      1.000     Nd          2.021588  
         Nd5       1.0000    0.82382   0.84308   0.83115   Biso      1.000     Nd          2.098346  
         Nd6       1.0000    0.32382   0.65692   0.33115   Biso      1.000     Nd          2.098346  
         Nd7       1.0000    0.92229   0.63581   0.22914   Biso      1.000     Nd          2.021587  
         Nd8       1.0000    0.67618   0.34308   0.66885   Biso      1.000     Nd          2.098346  
         O1        1.0000    0.50620   0.31860   0.60610   Biso      1.000     O          -0.644797           
         O2        1.0000    0.05000   0.63890   0.33760   Biso      1.000     O          -0.722159           
         O3        1.0000    0.19230   0.70580   0.35970   Biso      1.000     O          -0.694889           
         O4        1.0000    0.33390   0.82540   0.60260   Biso      1.000     O          -0.635245           
         O5        1.0000    0.25410   0.84750   0.67240   Biso      1.000     O          -0.671993           
         O6        1.0000    0.90940   0.86430   0.73890   Biso      1.000     O          -0.63854  
         O7        1.0000    0.88530   0.96600   0.80380   Biso      1.000     O          -0.643024           
         O8        1.0000    0.02310   0.22970   0.77920   Biso      1.000     O          -0.577803           
         O9        1.0000    0.11510   0.24480   0.70980   Biso      1.000     O          -0.698178           
         O10       1.0000    0.38150   0.99260   0.67930   Biso      1.000     O          -0.59053  
         O11       1.0000    0.61850   0.00740   0.32070   Biso      1.000     O          -0.59053  
         O12       1.0000    0.35710   0.93080   0.81280   Biso      1.000     O          -0.530958           
         O13       1.0000    0.64290   0.06920   0.18720   Biso      1.000     O          -0.530958           
         O14       1.0000    0.88490   0.75520   0.29020   Biso      1.000     O          -0.698178           
         O15       1.0000    0.97690   0.77030   0.22080   Biso      1.000     O          -0.577804           
         O16       1.0000    0.11470   0.03400   0.19620   Biso      1.000     O          -0.643024           
         O17       1.0000    0.09060   0.13570   0.26110   Biso      1.000     O          -0.63854  
         O18       1.0000    0.29930   0.11540   0.27330   Biso      1.000     O          -0.691195           
         O19       1.0000    0.74590   0.15250   0.32760   Biso      1.000     O          -0.671993           
         O20       1.0000    0.66610   0.17460   0.39740   Biso      1.000     O          -0.635245           
         O21       1.0000    0.80770   0.29420   0.64030   Biso      1.000     O          -0.694889           
         O22       1.0000    0.95000   0.36110   0.66240   Biso      1.000     O          -0.722159           
         O23       1.0000    0.60560   0.25710   0.56140   Biso      1.000     O          -0.669582           
         O24       1.0000    0.45710   0.11150   0.32130   Biso      1.000     O          -0.682061           
         O25       1.0000    0.40940   0.63570   0.23890   Biso      1.000     O          -0.63854  
         O26       1.0000    0.75410   0.65250   0.17240   Biso      1.000     O          -0.671993           
         O27       1.0000    0.38530   0.53400   0.30380   Biso      1.000     O          -0.643024           
         O28       1.0000    0.52310   0.27030   0.27920   Biso      1.000     O          -0.577804           
         O29       1.0000    0.61510   0.25520   0.20980   Biso      1.000     O          -0.698178           
         O30       1.0000    0.88150   0.50740   0.17930   Biso      1.000     O          -0.59053  
         O31       1.0000    0.83390   0.67460   0.10260   Biso      1.000     O          -0.635245           
         O32       1.0000    0.85710   0.56920   0.31280   Biso      1.000     O          -0.530958           
         O33       1.0000    0.69230   0.79420   0.85970   Biso      1.000     O          -0.694889           
         O34       1.0000    0.55000   0.86110   0.83760   Biso      1.000     O          -0.722159           
         O35       1.0000    0.99380   0.81860   0.89390   Biso      1.000     O          -0.644796           
         O36       1.0000    0.89440   0.75710   0.93860   Biso      1.000     O          -0.669582           
         O37       1.0000    0.04290   0.61150   0.17870   Biso      1.000     O          -0.682062           
         O38       1.0000    0.20070   0.61540   0.22670   Biso      1.000     O          -0.691194           
         O39       1.0000    0.70070   0.88460   0.72670   Biso      1.000     O          -0.691194           
         O40       1.0000    0.79930   0.38460   0.77330   Biso      1.000     O          -0.691194           
         O41       1.0000    0.54290   0.88850   0.67870   Biso      1.000     O          -0.682062           
         O42       1.0000    0.14290   0.43080   0.68720   Biso      1.000     O          -0.530958           
         O43       1.0000    0.49380   0.68140   0.39390   Biso      1.000     O          -0.644796           
         O44       1.0000    0.11850   0.49260   0.82070   Biso      1.000     O          -0.59053  
         O45       1.0000    0.38490   0.74480   0.79020   Biso      1.000     O          -0.698178           
         O46       1.0000    0.47690   0.72970   0.72080   Biso      1.000     O          -0.577803           
         O47       1.0000    0.61470   0.46600   0.69620   Biso      1.000     O          -0.643024           
         O48       1.0000    0.59060   0.36430   0.76110   Biso      1.000     O          -0.63854  
         O49       1.0000    0.24590   0.34750   0.82760   Biso      1.000     O          -0.671993           
         O50       1.0000    0.16610   0.32540   0.89740   Biso      1.000     O          -0.635245           
         O51       1.0000    0.30770   0.20580   0.14030   Biso      1.000     O          -0.694889           
         O52       1.0000    0.45000   0.13890   0.16240   Biso      1.000     O          -0.722159           
         O53       1.0000    0.00620   0.18140   0.10610   Biso      1.000     O          -0.644796           
         O54       1.0000    0.10560   0.24290   0.06140   Biso      1.000     O          -0.669582           
         O55       1.0000    0.39440   0.74290   0.43860   Biso      1.000     O          -0.669582           
         O56       1.0000    0.95710   0.38850   0.82130   Biso      1.000     O          -0.682062 