
##########################################################################
#               Crystallographic Information Format file
#               Produced by PyCifRW module
#
#  This is a CIF file.  CIF has been adopted by the International
#  Union of Crystallography as the standard for data archiving and
#  transmission.
#
#  For information on this file format, follow the CIF links at
#  http://www.iucr.org
##########################################################################

data_image0

_cell_length_a                          14.4821
_cell_length_b                          16.7137
_cell_length_c                          19.213
_cell_angle_alpha                       90
_cell_angle_beta                        108.039
_cell_angle_gamma                       90
_symmetry_space_group_name_H-M          'P 1'
_symmetry_int_tables_number             1
loop_
  _symmetry_equiv_pos_as_xyz
         'x, y, z' 
loop_
  _atom_site_label
  _atom_site_occupancy
  _atom_site_fract_x
  _atom_site_fract_y
  _atom_site_fract_z
  _atom_site_thermal_displace_type
  _atom_site_B_iso_or_equiv
  _atom_site_type_symbol
  _atom_site_charge
         C1        1.0000    0.83160   0.76140   0.53670   Biso      1.000     C          -0.098585           
         C2        1.0000    0.05290   0.20260   0.73370   Biso      1.000     C          0.602882  
         C3        1.0000    0.91770   0.93780   0.75720   Biso      1.000     C          0.619926  
         C4        1.0000    0.98960   0.06890   0.73930   Biso      1.000     C          -0.129631           
         C5        1.0000    0.02640   0.12270   0.70090   Biso      1.000     C          -0.005522           
         C6        1.0000    0.26480   0.22470   0.45610   Biso      1.000     C          0.144228  
         C7        1.0000    0.03210   0.10060   0.63190   Biso      1.000     C          -0.146579           
         C8        1.0000    0.99920   0.02650   0.60170   Biso      1.000     C          0.149973  
         C9        1.0000    0.27280   0.18640   0.39380   Biso      1.000     C          -0.159887           
         C10       1.0000    0.96310   0.97300   0.64180   Biso      1.000     C          -0.145995           
         C11       1.0000    0.95620   0.99290   0.71120   Biso      1.000     C          -0.005004           
         C12       1.0000    0.25590   0.82300   0.61440   Biso      1.000     C          0.652254  
         C13       1.0000    0.11790   0.68710   0.37870   Biso      1.000     C          0.673853  
         C14       1.0000    0.08470   0.78540   0.57050   Biso      1.000     C          -0.141295           
         C15       1.0000    0.17490   0.78840   0.55920   Biso      1.000     C          -0.014812           
         C16       1.0000    0.37290   0.12750   0.32380   Biso      1.000     C          0.714288  
         C17       1.0000    0.18630   0.75390   0.49420   Biso      1.000     C          -0.1038   
         C18       1.0000    0.10570   0.71940   0.44680   Biso      1.000     C          -0.033959           
         C19       1.0000    0.52190   0.27570   0.55990   Biso      1.000     C          0.603863  
         C20       1.0000    0.01610   0.71760   0.45820   Biso      1.000     C          -0.137819           
         C21       1.0000    0.00430   0.75070   0.52280   Biso      1.000     C          0.146387  
         C22       1.0000    0.90860   0.75220   0.53060   Biso      1.000     C          -0.101004           
         C23       1.0000    0.75590   0.67700   0.11440   Biso      1.000     C          0.652254  
         C24       1.0000    0.47810   0.72430   0.44010   Biso      1.000     C          0.603863  
         C25       1.0000    0.62710   0.87250   0.67620   Biso      1.000     C          0.714288  
         C26       1.0000    0.16840   0.23860   0.46330   Biso      1.000     C          -0.098586           
         C27       1.0000    0.72720   0.81360   0.60620   Biso      1.000     C          -0.159887           
         C28       1.0000    0.73520   0.77530   0.54390   Biso      1.000     C          0.144228  
         C29       1.0000    0.00000   0.00850   0.52930   Biso      1.000     C          -0.097525           
         C30       1.0000    0.37210   0.05390   0.61830   Biso      1.000     C          -0.108443           
         C31       1.0000    0.34640   0.25200   0.51000   Biso      1.000     C          -0.152222           
         C32       1.0000    0.43880   0.23970   0.50470   Biso      1.000     C          -0.008615           
         C33       1.0000    0.61790   0.81290   0.87870   Biso      1.000     C          0.673853  
         C34       1.0000    0.46310   0.52700   0.14180   Biso      1.000     C          -0.145996           
         C35       1.0000    0.58470   0.71460   0.07050   Biso      1.000     C          -0.141295           
         C36       1.0000    0.67490   0.71160   0.05920   Biso      1.000     C          -0.014813           
         C37       1.0000    0.68630   0.74610   0.99420   Biso      1.000     C          -0.1038   
         C38       1.0000    0.60570   0.78060   0.94680   Biso      1.000     C          -0.03396  
         C39       1.0000    0.49920   0.47350   0.10170   Biso      1.000     C          0.149973  
         C40       1.0000    0.51610   0.78240   0.95820   Biso      1.000     C          -0.137818           
         C41       1.0000    0.50430   0.74930   0.02280   Biso      1.000     C          0.146404  
         C42       1.0000    0.40860   0.74780   0.03060   Biso      1.000     C          -0.101139           
         C43       1.0000    0.33160   0.73860   0.03670   Biso      1.000     C          -0.098451           
         C44       1.0000    0.97810   0.77570   0.94010   Biso      1.000     C          0.603864  
         C45       1.0000    0.12710   0.62750   0.17620   Biso      1.000     C          0.714288  
         C46       1.0000    0.09140   0.24780   0.46940   Biso      1.000     C          -0.101004           
         C47       1.0000    0.53210   0.39940   0.13190   Biso      1.000     C          -0.146578           
         C48       1.0000    0.23520   0.72470   0.04390   Biso      1.000     C          0.144212  
         C49       1.0000    0.15360   0.75200   0.99000   Biso      1.000     C          -0.152224           
         C50       1.0000    0.06120   0.73970   0.99530   Biso      1.000     C          -0.008614           
         C51       1.0000    0.52640   0.37730   0.20090   Biso      1.000     C          -0.005522           
         C52       1.0000    0.05280   0.70180   0.05740   Biso      1.000     C          -0.098894           
         C53       1.0000    0.13460   0.67420   0.11380   Biso      1.000     C          -0.046247           
         C54       1.0000    0.48960   0.43110   0.23930   Biso      1.000     C          -0.12963  
         C55       1.0000    0.41770   0.56220   0.25720   Biso      1.000     C          0.619926  
         C56       1.0000    0.55290   0.29740   0.23370   Biso      1.000     C          0.602882  
         C57       1.0000    0.50000   0.49150   0.02930   Biso      1.000     C          -0.097525           
         C58       1.0000    0.87210   0.44610   0.11830   Biso      1.000     C          -0.108443           
         C59       1.0000    0.36540   0.17420   0.38620   Biso      1.000     C          -0.046248           
         C60       1.0000    0.44720   0.20180   0.44260   Biso      1.000     C          -0.098894           
         C61       1.0000    0.22720   0.68640   0.10620   Biso      1.000     C          -0.159888           
         C62       1.0000    0.65360   0.74800   0.49000   Biso      1.000     C          -0.152222           
         C63       1.0000    0.45620   0.50710   0.21120   Biso      1.000     C          -0.005004           
         C64       1.0000    0.99570   0.24930   0.47720   Biso      1.000     C          0.146382  
         C65       1.0000    0.02190   0.22430   0.05990   Biso      1.000     C          0.603863  
         C66       1.0000    0.01040   0.93110   0.26070   Biso      1.000     C          -0.12963  
         C67       1.0000    0.51040   0.56890   0.76070   Biso      1.000     C          -0.12963  
         C68       1.0000    0.47360   0.62270   0.79910   Biso      1.000     C          -0.005521           
         C69       1.0000    0.66840   0.26140   0.96330   Biso      1.000     C          -0.098586           
         C70       1.0000    0.46790   0.60060   0.86810   Biso      1.000     C          -0.146581           
         C71       1.0000    0.50080   0.52650   0.89830   Biso      1.000     C          0.149955  
         C72       1.0000    0.59140   0.25220   0.96940   Biso      1.000     C          -0.101004           
         C73       1.0000    0.08230   0.06220   0.24280   Biso      1.000     C          0.619926  
         C74       1.0000    0.53690   0.47300   0.85820   Biso      1.000     C          -0.145996           
         C75       1.0000    0.56120   0.76030   0.49530   Biso      1.000     C          -0.008615           
         C76       1.0000    0.49570   0.25070   0.97720   Biso      1.000     C          0.146382  
         C77       1.0000    0.48390   0.21760   0.04180   Biso      1.000     C          -0.137823           
         C78       1.0000    0.62790   0.94610   0.38170   Biso      1.000     C          -0.108443           
         C79       1.0000    0.39430   0.21940   0.05320   Biso      1.000     C          -0.033961           
         C80       1.0000    0.31370   0.25390   0.00580   Biso      1.000     C          -0.103793           
         C81       1.0000    0.54380   0.49290   0.78880   Biso      1.000     C          -0.005003           
         C82       1.0000    0.24410   0.32300   0.88560   Biso      1.000     C          0.652254  
         C83       1.0000    0.38210   0.18710   0.12130   Biso      1.000     C          0.673853  
         C84       1.0000    0.94710   0.79740   0.26630   Biso      1.000     C          0.602882  
         C85       1.0000    0.00000   0.99150   0.47070   Biso      1.000     C          -0.097374           
         C86       1.0000    0.58230   0.43780   0.74280   Biso      1.000     C          0.619926  
         C87       1.0000    0.44710   0.70260   0.76630   Biso      1.000     C          0.602882  
         C88       1.0000    0.50000   0.50850   0.97070   Biso      1.000     C          -0.097374           
         C89       1.0000    0.12790   0.55390   0.88170   Biso      1.000     C          -0.108443           
         C90       1.0000    0.55280   0.79820   0.55740   Biso      1.000     C          -0.098894           
         C91       1.0000    0.63460   0.82580   0.61380   Biso      1.000     C          -0.046249           
         C92       1.0000    0.86540   0.32580   0.88620   Biso      1.000     C          -0.046248           
         C93       1.0000    0.98390   0.28240   0.54180   Biso      1.000     C          -0.137823           
         C94       1.0000    0.94720   0.29820   0.94260   Biso      1.000     C          -0.098895           
         C95       1.0000    0.89430   0.28060   0.55320   Biso      1.000     C          -0.033961           
         C96       1.0000    0.81370   0.24610   0.50580   Biso      1.000     C          -0.103793           
         C97       1.0000    0.93880   0.26030   0.00470   Biso      1.000     C          -0.008615           
         C98       1.0000    0.82510   0.21160   0.44080   Biso      1.000     C          -0.014814           
         C99       1.0000    0.41530   0.28540   0.92950   Biso      1.000     C          -0.141288           
         C100      1.0000    0.91530   0.21460   0.42950   Biso      1.000     C          -0.141288           
         C101      1.0000    0.88210   0.31290   0.62130   Biso      1.000     C          0.673853  
         C102      1.0000    0.74410   0.17700   0.38560   Biso      1.000     C          0.652254  
         C103      1.0000    0.04380   0.00710   0.28880   Biso      1.000     C          -0.005003           
         C104      1.0000    0.76480   0.27530   0.95610   Biso      1.000     C          0.144228  
         C105      1.0000    0.03690   0.02700   0.35820   Biso      1.000     C          -0.145997           
         C106      1.0000    0.77280   0.31360   0.89380   Biso      1.000     C          -0.159887           
         C107      1.0000    0.00080   0.97350   0.39830   Biso      1.000     C          0.149955  
         C108      1.0000    0.96790   0.89940   0.36810   Biso      1.000     C          -0.14658  
         C109      1.0000    0.87290   0.37250   0.82380   Biso      1.000     C          0.714288  
         C110      1.0000    0.97360   0.87730   0.29910   Biso      1.000     C          -0.005521           
         C111      1.0000    0.84640   0.24800   0.01000   Biso      1.000     C          -0.152222           
         C112      1.0000    0.32510   0.28840   0.94080   Biso      1.000     C          -0.014814           
         Dy1       1.0000    0.07739   0.36380   0.77104   Biso      1.000     Dy          2.039499  
         Dy2       1.0000    0.57739   0.13620   0.27104   Biso      1.000     Dy          2.039499  
         Dy3       1.0000    0.32359   0.65630   0.33119   Biso      1.000     Dy          2.080917  
         Dy4       1.0000    0.42261   0.86380   0.72896   Biso      1.000     Dy          2.039499  
         Dy5       1.0000    0.82359   0.84370   0.83119   Biso      1.000     Dy          2.080917  
         Dy6       1.0000    0.92261   0.63620   0.22896   Biso      1.000     Dy          2.039499  
         Dy7       1.0000    0.17641   0.15630   0.16881   Biso      1.000     Dy          2.080917  
         Dy8       1.0000    0.67641   0.34370   0.66881   Biso      1.000     Dy          2.080917  
         H1        1.0000    0.86510   0.49610   0.21730   Biso      1.000     H          0.376976  
         H2        1.0000    0.48670   0.41680   0.28530   Biso      1.000     H          0.131005  
         H3        1.0000    0.91140   0.46250   0.08870   Biso      1.000     H          0.154331  
         H4        1.0000    0.03670   0.30550   0.57670   Biso      1.000     H          0.124242  
         H5        1.0000    0.69460   0.94290   0.41150   Biso      1.000     H          0.140176  
         H6        1.0000    0.44290   0.57730   0.12240   Biso      1.000     H          0.124636  
         H7        1.0000    0.75450   0.24510   0.51520   Biso      1.000     H          0.143742  
         H8        1.0000    0.92140   0.19170   0.38700   Biso      1.000     H          0.130957  
         H9        1.0000    0.55850   0.36390   0.10600   Biso      1.000     H          0.122275  
         H10       1.0000    0.60670   0.89460   0.36060   Biso      1.000     H          0.135117  
         H11       1.0000    0.05710   0.07730   0.37760   Biso      1.000     H          0.124635  
         H12       1.0000    0.89330   0.39460   0.13940   Biso      1.000     H          0.135117  
         H13       1.0000    0.94150   0.86390   0.39400   Biso      1.000     H          0.122275  
         H14       1.0000    0.33920   0.27900   0.55030   Biso      1.000     H          0.135762  
         H15       1.0000    0.01330   0.91680   0.21470   Biso      1.000     H          0.131005  
         H16       1.0000    0.50870   0.19450   0.43800   Biso      1.000     H          0.137373  
         H17       1.0000    0.80540   0.44290   0.08850   Biso      1.000     H          0.140176  
         H18       1.0000    0.21750   0.16910   0.35750   Biso      1.000     H          0.130094  
         H19       1.0000    0.58860   0.96250   0.41130   Biso      1.000     H          0.154331  
         H20       1.0000    0.36510   0.00390   0.71730   Biso      1.000     H          0.376976  
         H21       1.0000    0.74550   0.74510   0.98480   Biso      1.000     H          0.143743  
         H22       1.0000    0.41140   0.03750   0.58870   Biso      1.000     H          0.154331  
         H23       1.0000    0.98670   0.08320   0.78530   Biso      1.000     H          0.131005  
         H24       1.0000    0.05850   0.13610   0.60600   Biso      1.000     H          0.122276  
         H25       1.0000    0.94290   0.92270   0.62240   Biso      1.000     H          0.124636  
         H26       1.0000    0.07860   0.80830   0.61300   Biso      1.000     H          0.130957  
         H27       1.0000    0.24550   0.75490   0.48480   Biso      1.000     H          0.143743  
         H28       1.0000    0.96330   0.69450   0.42330   Biso      1.000     H          0.124242  
         H29       1.0000    0.57860   0.69170   0.11300   Biso      1.000     H          0.130958  
         H30       1.0000    0.66080   0.72100   0.44970   Biso      1.000     H          0.135762  
         H31       1.0000    0.49130   0.80550   0.56200   Biso      1.000     H          0.137373  
         H32       1.0000    0.13490   0.50390   0.78270   Biso      1.000     H          0.376976  
         H33       1.0000    0.19460   0.55710   0.91150   Biso      1.000     H          0.140175  
         H34       1.0000    0.10670   0.60540   0.86060   Biso      1.000     H          0.135117  
         H35       1.0000    0.08860   0.53750   0.91130   Biso      1.000     H          0.154331  
         H36       1.0000    0.51330   0.58320   0.71470   Biso      1.000     H          0.131005  
         H37       1.0000    0.44150   0.63610   0.89400   Biso      1.000     H          0.122275  
         H38       1.0000    0.55710   0.42270   0.87760   Biso      1.000     H          0.124635  
         H39       1.0000    0.42140   0.30830   0.88700   Biso      1.000     H          0.130957  
         H40       1.0000    0.25450   0.25490   0.01520   Biso      1.000     H          0.143742  
         H41       1.0000    0.53670   0.19450   0.07670   Biso      1.000     H          0.124242  
         H42       1.0000    0.71750   0.33090   0.85750   Biso      1.000     H          0.130094  
         H43       1.0000    0.83920   0.22100   0.05030   Biso      1.000     H          0.135762  
         H44       1.0000    0.00870   0.30550   0.93800   Biso      1.000     H          0.137373  
         H45       1.0000    0.39330   0.10540   0.63940   Biso      1.000     H          0.135117  
         H46       1.0000    0.30540   0.05710   0.58850   Biso      1.000     H          0.140176  
         H47       1.0000    0.78250   0.83090   0.64250   Biso      1.000     H          0.130094  
         H48       1.0000    0.63490   0.99610   0.28270   Biso      1.000     H          0.376976  
         H49       1.0000    0.99130   0.69450   0.06200   Biso      1.000     H          0.137373  
         H50       1.0000    0.16080   0.77900   0.94970   Biso      1.000     H          0.135761  
         H51       1.0000    0.28250   0.66910   0.14250   Biso      1.000     H          0.130094  
         H52       1.0000    0.46330   0.80550   0.92330   Biso      1.000     H          0.124243  
         O1        1.0000    0.74520   0.15170   0.32700   Biso      1.000     O          -0.701803           
         O2        1.0000    0.79940   0.38550   0.77307   Biso      1.000     O          -0.698757           
         O3        1.0000    0.33300   0.82560   0.60230   Biso      1.000     O          -0.644358           
         O4        1.0000    0.25480   0.84830   0.67300   Biso      1.000     O          -0.701803           
         O5        1.0000    0.90850   0.86480   0.73855   Biso      1.000     O          -0.643386           
         O6        1.0000    0.88460   0.96660   0.80420   Biso      1.000     O          -0.64564  
         O7        1.0000    0.02330   0.22950   0.77930   Biso      1.000     O          -0.569505           
         O8        1.0000    0.11540   0.24520   0.71010   Biso      1.000     O          -0.717283           
         O9        1.0000    0.38200   0.99250   0.67980   Biso      1.000     O          -0.595094           
         O10       1.0000    0.61800   0.00750   0.32020   Biso      1.000     O          -0.595094           
         O11       1.0000    0.09150   0.13520   0.26145   Biso      1.000     O          -0.643386           
         O12       1.0000    0.88460   0.75480   0.28990   Biso      1.000     O          -0.717283           
         O13       1.0000    0.11540   0.03340   0.19580   Biso      1.000     O          -0.64564  
         O14       1.0000    0.95650   0.38880   0.82080   Biso      1.000     O          -0.700786           
         O15       1.0000    0.29940   0.11450   0.27307   Biso      1.000     O          -0.698757           
         O16       1.0000    0.45650   0.11120   0.32080   Biso      1.000     O          -0.700786           
         O17       1.0000    0.60620   0.25770   0.56140   Biso      1.000     O          -0.664062           
         O18       1.0000    0.50640   0.31910   0.60610   Biso      1.000     O          -0.653063           
         O19       1.0000    0.94950   0.36100   0.66250   Biso      1.000     O          -0.74559  
         O20       1.0000    0.80750   0.29450   0.64080   Biso      1.000     O          -0.699653           
         O21       1.0000    0.66700   0.17440   0.39770   Biso      1.000     O          -0.644358           
         O22       1.0000    0.97670   0.77050   0.22070   Biso      1.000     O          -0.569505           
         O23       1.0000    0.88200   0.50750   0.17980   Biso      1.000     O          -0.595094           
         O24       1.0000    0.05050   0.63900   0.33750   Biso      1.000     O          -0.74559  
         O25       1.0000    0.44950   0.13900   0.16250   Biso      1.000     O          -0.74559  
         O26       1.0000    0.49360   0.68090   0.39390   Biso      1.000     O          -0.653063           
         O27       1.0000    0.39380   0.74230   0.43860   Biso      1.000     O          -0.664062           
         O28       1.0000    0.54350   0.88880   0.67920   Biso      1.000     O          -0.700786           
         O29       1.0000    0.70060   0.88550   0.72693   Biso      1.000     O          -0.698757           
         O30       1.0000    0.61540   0.25480   0.21010   Biso      1.000     O          -0.717283           
         O31       1.0000    0.52330   0.27050   0.27930   Biso      1.000     O          -0.569505           
         O32       1.0000    0.38460   0.53340   0.30420   Biso      1.000     O          -0.64564  
         O33       1.0000    0.40850   0.63520   0.23855   Biso      1.000     O          -0.643386           
         O34       1.0000    0.75480   0.65170   0.17300   Biso      1.000     O          -0.701803           
         O35       1.0000    0.83300   0.67440   0.10230   Biso      1.000     O          -0.644358           
         O36       1.0000    0.69250   0.79450   0.85920   Biso      1.000     O          -0.699653           
         O37       1.0000    0.55050   0.86100   0.83750   Biso      1.000     O          -0.745591           
         O38       1.0000    0.99360   0.81910   0.89390   Biso      1.000     O          -0.653062           
         O39       1.0000    0.89380   0.75770   0.93860   Biso      1.000     O          -0.664062           
         O40       1.0000    0.04350   0.61120   0.17920   Biso      1.000     O          -0.700786           
         O41       1.0000    0.20060   0.61450   0.22693   Biso      1.000     O          -0.698757           
         O42       1.0000    0.19250   0.70550   0.35920   Biso      1.000     O          -0.699653           
         O43       1.0000    0.11800   0.49250   0.82020   Biso      1.000     O          -0.595094           
         O44       1.0000    0.38460   0.74520   0.78990   Biso      1.000     O          -0.717283           
         O45       1.0000    0.47670   0.72950   0.72070   Biso      1.000     O          -0.569505           
         O46       1.0000    0.61540   0.46660   0.69580   Biso      1.000     O          -0.64564  
         O47       1.0000    0.59150   0.36480   0.76145   Biso      1.000     O          -0.643386           
         O48       1.0000    0.24520   0.34830   0.82700   Biso      1.000     O          -0.701803           
         O49       1.0000    0.16700   0.32560   0.89770   Biso      1.000     O          -0.644358           
         O50       1.0000    0.30750   0.20550   0.14080   Biso      1.000     O          -0.699653           
         O51       1.0000    0.00640   0.18090   0.10610   Biso      1.000     O          -0.653063           
         O52       1.0000    0.10620   0.24230   0.06140   Biso      1.000     O          -0.664062 