
##########################################################################
#               Crystallographic Information Format file
#               Produced by PyCifRW module
#
#  This is a CIF file.  CIF has been adopted by the International
#  Union of Crystallography as the standard for data archiving and
#  transmission.
#
#  For information on this file format, follow the CIF links at
#  http://www.iucr.org
##########################################################################

data_image0

_cell_length_a                          10.5526
_cell_length_b                          10.8749
_cell_length_c                          15.3643
_cell_angle_alpha                       76.545
_cell_angle_beta                        82.101
_cell_angle_gamma                       79.927
_symmetry_space_group_name_H-M          'P 1'
_symmetry_int_tables_number             1
loop_
  _symmetry_equiv_pos_as_xyz
         'x, y, z' 
loop_
  _atom_site_label
  _atom_site_occupancy
  _atom_site_fract_x
  _atom_site_fract_y
  _atom_site_fract_z
  _atom_site_thermal_displace_type
  _atom_site_B_iso_or_equiv
  _atom_site_type_symbol
  _atom_site_charge
         C1        1.0000    0.08480   0.09180   0.37540   Biso      1.000     C          -0.11752  
         C2        1.0000    0.21680   0.27120   0.33760   Biso      1.000     C          0.565878  
         C3        1.0000    0.73840   0.35880   0.33040   Biso      1.000     C          0.575742  
         C4        1.0000    0.12560   0.78970   0.29890   Biso      1.000     C          -0.052383000000000006         
         C5        1.0000    0.85500   0.13080   0.37510   Biso      1.000     C          -0.10213799999999999          
         C6        1.0000    0.03940   0.84730   0.23800   Biso      1.000     C          -0.053373000000000004         
         C7        1.0000    0.32970   0.15860   0.79780   Biso      1.000     C          0.596367  
         C8        1.0000    0.53080   0.61270   0.10290   Biso      1.000     C          -0.045692           
         C9        1.0000    0.15010   0.75680   0.96380   Biso      1.000     C          0.588051  
         C10       1.0000    0.42260   0.58610   0.07430   Biso      1.000     C          -0.038618           
         C11       1.0000    0.96740   0.04700   0.38960   Biso      1.000     C          -0.091677           
         C12       1.0000    0.32870   0.75620   0.84020   Biso      1.000     C          -0.10173  
         C13       1.0000    0.41440   0.81590   0.77440   Biso      1.000     C          -0.070256           
         C14       1.0000    0.28030   0.24290   0.12060   Biso      1.000     C          -0.029618000000000002         
         C15       1.0000    0.41410   0.94560   0.76290   Biso      1.000     C          -0.096442           
         C16       1.0000    0.84680   0.61320   0.48330   Biso      1.000     C          -0.027793           
         C17       1.0000    0.32920   0.01580   0.81490   Biso      1.000     C          -0.039662           
         C18       1.0000    0.82720   0.64310   0.39390   Biso      1.000     C          -0.031382           
         C19       1.0000    0.24100   0.95600   0.88100   Biso      1.000     C          -0.160745           
         C20       1.0000    0.09160   0.22060   0.34560   Biso      1.000     C          -0.024008           
         C21       1.0000    0.97860   0.30320   0.32910   Biso      1.000     C          -0.161003           
         C22       1.0000    0.26110   0.17670   0.05980   Biso      1.000     C          -0.04885  
         C23       1.0000    0.87440   0.21030   0.70110   Biso      1.000     C          -0.052386           
         C24       1.0000    0.96060   0.15270   0.76200   Biso      1.000     C          -0.05336900000000001          
         C25       1.0000    0.46920   0.38730   0.89710   Biso      1.000     C          -0.045722000000000006         
         C26       1.0000    0.67030   0.84140   0.20220   Biso      1.000     C          0.596375  
         C27       1.0000    0.84990   0.24320   0.03620   Biso      1.000     C          0.588051  
         C28       1.0000    0.67130   0.24380   0.15980   Biso      1.000     C          -0.101728           
         C29       1.0000    0.58560   0.18410   0.22560   Biso      1.000     C          -0.070253           
         C30       1.0000    0.58590   0.05440   0.23710   Biso      1.000     C          -0.096443           
         C31       1.0000    0.67080   0.98420   0.18510   Biso      1.000     C          -0.039661           
         C32       1.0000    0.75900   0.04400   0.11900   Biso      1.000     C          -0.160725           
         C33       1.0000    0.75770   0.17550   0.10710   Biso      1.000     C          -0.012976           
         C34       1.0000    0.26160   0.64120   0.66960   Biso      1.000     C          0.575749  
         C35       1.0000    0.78320   0.72880   0.66240   Biso      1.000     C          0.5658810000000001  
         C36       1.0000    0.91520   0.90820   0.62460   Biso      1.000     C          -0.117549           
         C37       1.0000    0.03260   0.95300   0.61040   Biso      1.000     C          -0.09170199999999999          
         C38       1.0000    0.14500   0.86920   0.62490   Biso      1.000     C          -0.10215  
         C39       1.0000    0.14050   0.73910   0.65710   Biso      1.000     C          -0.007795000000000001         
         C40       1.0000    0.02140   0.69680   0.67090   Biso      1.000     C          -0.161018           
         C41       1.0000    0.90840   0.77940   0.65440   Biso      1.000     C          -0.024034           
         C42       1.0000    0.17280   0.35690   0.60610   Biso      1.000     C          -0.031382           
         C43       1.0000    0.15320   0.38680   0.51670   Biso      1.000     C          -0.027824           
         C44       1.0000    0.71970   0.75710   0.87940   Biso      1.000     C          -0.0296   
         C45       1.0000    0.73890   0.82330   0.94020   Biso      1.000     C          -0.048861           
         C46       1.0000    0.57740   0.41390   0.92570   Biso      1.000     C          -0.038665           
         C47       1.0000    0.24230   0.82450   0.89290   Biso      1.000     C          -0.012997           
         C48       1.0000    0.85950   0.26090   0.34290   Biso      1.000     C          -0.007795000000000001         
         Cu1       1.0000    0.15906   0.51020   0.15969   Biso      1.000     Cu          0.736306  
         Cu2       1.0000    0.07311   0.23881   0.90841   Biso      1.000     Cu          0.815539  
         Cu3       1.0000    0.38063   0.39639   0.71538   Biso      1.000     Cu          0.801171  
         Cu4       1.0000    0.00000   0.50000   0.00000   Biso      1.000     Cu          0.8570610000000001  
         Cu5       1.0000    0.67984   0.50433   0.65755   Biso      1.000     Cu          0.744954  
         Cu6       1.0000    0.84094   0.48980   0.84031   Biso      1.000     Cu          0.736323  
         Cu7       1.0000    0.50000   0.50000   0.50000   Biso      1.000     Cu          0.8229770000000001  
         Cu8       1.0000    0.92689   0.76119   0.09159   Biso      1.000     Cu          0.815525  
         Cu9       1.0000    0.32016   0.49567   0.34245   Biso      1.000     Cu          0.744919  
         Cu10      1.0000    0.61937   0.60361   0.28462   Biso      1.000     Cu          0.801237  
         H1        1.0000    0.16030   0.03440   0.38610   Biso      1.000     H          0.110099  
         H2        1.0000    0.84970   0.17240   0.65900   Biso      1.000     H          0.124676  
         H3        1.0000    0.00460   0.06970   0.76930   Biso      1.000     H          0.12788   
         H4        1.0000    0.40020   0.35290   0.93310   Biso      1.000     H          0.12645599999999999           
         H5        1.0000    0.59520   0.40000   0.98510   Biso      1.000     H          0.12204300000000001           
         H6        1.0000    0.69660   0.90380   0.94650   Biso      1.000     H          0.13680599999999998           
         H7        1.0000    0.66140   0.78440   0.83610   Biso      1.000     H          0.129916  
         H8        1.0000    0.08050   0.37700   0.49240   Biso      1.000     H          0.12895   
         H9        1.0000    0.11500   0.32360   0.65350   Biso      1.000     H          0.120104  
         H10       1.0000    0.01770   0.61000   0.69200   Biso      1.000     H          0.105354  
         H11       1.0000    0.60040   0.33290   0.61450   Biso      1.000     H          0.393273  
         H12       1.0000    0.92110   0.49690   0.16420   Biso      1.000     H          0.390534  
         H13       1.0000    0.22420   0.89940   0.61320   Biso      1.000     H          0.123079  
         H14       1.0000    0.03560   0.04010   0.59110   Biso      1.000     H          0.102977  
         H15       1.0000    0.83970   0.96560   0.61390   Biso      1.000     H          0.110089  
         H16       1.0000    0.81750   0.99680   0.08370   Biso      1.000     H          0.10300999999999999           
         H17       1.0000    0.52760   0.01420   0.28080   Biso      1.000     H          0.126588  
         H18       1.0000    0.52820   0.23090   0.26170   Biso      1.000     H          0.11813599999999999           
         H19       1.0000    0.67040   0.33150   0.15120   Biso      1.000     H          0.11336099999999999           
         H20       1.0000    0.39960   0.66710   0.38550   Biso      1.000     H          0.393285  
         H21       1.0000    0.07890   0.50310   0.83580   Biso      1.000     H          0.390547  
         H22       1.0000    0.96440   0.95990   0.40890   Biso      1.000     H          0.102993  
         H23       1.0000    0.40480   0.60000   0.01490   Biso      1.000     H          0.122077  
         H24       1.0000    0.99540   0.93030   0.23070   Biso      1.000     H          0.127883  
         H25       1.0000    0.59980   0.64710   0.06690   Biso      1.000     H          0.12648   
         H26       1.0000    0.32960   0.66850   0.84880   Biso      1.000     H          0.11336600000000001           
         H27       1.0000    0.47180   0.76910   0.73830   Biso      1.000     H          0.118144  
         H28       1.0000    0.15030   0.82760   0.34100   Biso      1.000     H          0.12468399999999999           
         H29       1.0000    0.47240   0.98580   0.71920   Biso      1.000     H          0.12658599999999998           
         H30       1.0000    0.30340   0.09620   0.05350   Biso      1.000     H          0.13680799999999999           
         H31       1.0000    0.91950   0.62300   0.50760   Biso      1.000     H          0.128968  
         H32       1.0000    0.18250   0.00320   0.91630   Biso      1.000     H          0.102997  
         H33       1.0000    0.88500   0.67640   0.34650   Biso      1.000     H          0.12010499999999999           
         H34       1.0000    0.98230   0.39000   0.30800   Biso      1.000     H          0.10535499999999999           
         H35       1.0000    0.77580   0.10060   0.38680   Biso      1.000     H          0.12309   
         H36       1.0000    0.33860   0.21560   0.16390   Biso      1.000     H          0.12991   
         N1        1.0000    0.34860   0.53720   0.14610   Biso      1.000     N          -0.161275           
         N2        1.0000    0.66040   0.57180   0.46840   Biso      1.000     N          -0.067478           
         N3        1.0000    0.74270   0.56750   0.52850   Biso      1.000     N          -0.146315           
         N4        1.0000    0.16930   0.67010   0.28870   Biso      1.000     N          -0.201579           
         N5        1.0000    0.03050   0.76030   0.19060   Biso      1.000     N          -0.14638900000000002          
         N6        1.0000    0.71140   0.61660   0.38640   Biso      1.000     N          -0.11755399999999999          
         N7        1.0000    0.10830   0.65410   0.22150   Biso      1.000     N          -0.050506           
         N8        1.0000    0.40740   0.53310   0.21830   Biso      1.000     N          -0.048643           
         N9        1.0000    0.25730   0.43250   0.47150   Biso      1.000     N          -0.14638199999999998          
         N10       1.0000    0.28860   0.38340   0.61360   Biso      1.000     N          -0.117596           
         N11       1.0000    0.59260   0.46690   0.78170   Biso      1.000     N          -0.048691000000000005         
         N12       1.0000    0.51700   0.57940   0.19280   Biso      1.000     N          -0.125687           
         N13       1.0000    0.48300   0.42060   0.80720   Biso      1.000     N          -0.125702           
         N14       1.0000    0.83070   0.32990   0.71130   Biso      1.000     N          -0.201587           
         N15       1.0000    0.79870   0.64670   0.89240   Biso      1.000     N          -0.146286           
         N16       1.0000    0.86640   0.64260   0.96040   Biso      1.000     N          -0.054264           
         N17       1.0000    0.83090   0.74950   0.98970   Biso      1.000     N          -0.134952           
         N18       1.0000    0.33960   0.42820   0.53160   Biso      1.000     N          -0.067425           
         N19       1.0000    0.65140   0.46280   0.85390   Biso      1.000     N          -0.16128900000000002          
         N20       1.0000    0.16910   0.25050   0.01030   Biso      1.000     N          -0.134964           
         N21       1.0000    0.96950   0.23970   0.80940   Biso      1.000     N          -0.146393           
         N22       1.0000    0.13360   0.35740   0.03960   Biso      1.000     N          -0.054247000000000004         
         N23       1.0000    0.20130   0.35330   0.10760   Biso      1.000     N          -0.146272           
         N24       1.0000    0.89170   0.34590   0.77850   Biso      1.000     N          -0.050506999999999996         
         O1        1.0000    0.75200   0.45720   0.26860   Biso      1.000     O          -0.5552050000000001           
         O2        1.0000    0.20890   0.39440   0.30450   Biso      1.000     O          -0.62665  
         O3        1.0000    0.93810   0.17150   0.99740   Biso      1.000     O          -0.548838           
         O4        1.0000    0.55670   0.41910   0.61810   Biso      1.000     O          -0.826216           
         O5        1.0000    0.76160   0.76810   0.17110   Biso      1.000     O          -0.602133           
         O6        1.0000    0.31380   0.20350   0.36240   Biso      1.000     O          -0.512897           
         O7        1.0000    0.79110   0.60560   0.69550   Biso      1.000     O          -0.626664           
         O8        1.0000    0.42360   0.20170   0.74930   Biso      1.000     O          -0.535683           
         O9        1.0000    0.16300   0.63800   0.98110   Biso      1.000     O          -0.615256           
         O10       1.0000    0.06190   0.82850   0.00260   Biso      1.000     O          -0.548822           
         O11       1.0000    0.23840   0.23190   0.82890   Biso      1.000     O          -0.602137           
         O12       1.0000    0.98330   0.54210   0.12050   Biso      1.000     O          -0.837407           
         O13       1.0000    0.44330   0.58090   0.38190   Biso      1.000     O          -0.826234           
         O14       1.0000    0.83700   0.36200   0.01890   Biso      1.000     O          -0.615255           
         O15       1.0000    0.36120   0.65900   0.61870   Biso      1.000     O          -0.592312           
         O16       1.0000    0.57640   0.79830   0.25070   Biso      1.000     O          -0.535622           
         O17       1.0000    0.24800   0.54280   0.73140   Biso      1.000     O          -0.5553140000000001           
         O18       1.0000    0.68620   0.79650   0.63760   Biso      1.000     O          -0.512921           
         O19       1.0000    0.63880   0.34100   0.38130   Biso      1.000     O          -0.59223  
         O20       1.0000    0.01670   0.45790   0.87950   Biso      1.000     O          -0.837408 