
##########################################################################
#               Crystallographic Information Format file
#               Produced by PyCifRW module
#
#  This is a CIF file.  CIF has been adopted by the International
#  Union of Crystallography as the standard for data archiving and
#  transmission.
#
#  For information on this file format, follow the CIF links at
#  http://www.iucr.org
##########################################################################

data_image0

_cell_length_a                          16.0121
_cell_length_b                          7.5502
_cell_length_c                          27.8153
_cell_angle_alpha                       90
_cell_angle_beta                        99.733
_cell_angle_gamma                       90
_symmetry_space_group_name_H-M          'P 1'
_symmetry_int_tables_number             1
loop_
  _symmetry_equiv_pos_as_xyz
         'x, y, z' 
loop_
  _atom_site_label
  _atom_site_occupancy
  _atom_site_fract_x
  _atom_site_fract_y
  _atom_site_fract_z
  _atom_site_thermal_displace_type
  _atom_site_B_iso_or_equiv
  _atom_site_type_symbol
  _atom_site_charge
         C1        1.0000    0.20020   0.36060   0.77210   Biso      1.000     C          -0.13736  
         C2        1.0000    0.58550   0.11870   0.41041   Biso      1.000     C          0.112322  
         C3        1.0000    0.50950   0.17690   0.42238   Biso      1.000     C          -0.18764  
         C4        1.0000    0.50590   0.22770   0.46951   Biso      1.000     C          0.100885  
         C5        1.0000    0.58130   0.21740   0.50196   Biso      1.000     C          -0.196892           
         C6        1.0000    0.23870   0.25880   0.64517   Biso      1.000     C          0.600845  
         C7        1.0000    0.65420   0.15830   0.48706   Biso      1.000     C          0.09504   
         C8        1.0000    0.88110   0.62350   0.02041   Biso      1.000     C          0.599347  
         C9        1.0000    0.04140   0.77960   0.07583   Biso      1.000     C          0.605743  
         C10       1.0000    0.22270   0.36900   0.68848   Biso      1.000     C          0.001743  
         C11       1.0000    0.85540   0.49720   0.09949   Biso      1.000     C          -0.18057  
         C12       1.0000    0.90790   0.59660   0.07461   Biso      1.000     C          -0.041679           
         C13       1.0000    0.98070   0.67440   0.10034   Biso      1.000     C          0.001126  
         C14       1.0000    0.21660   0.55270   0.68939   Biso      1.000     C          -0.046171           
         C15       1.0000    0.00010   0.64900   0.15036   Biso      1.000     C          -0.096376           
         C16       1.0000    0.42680   0.29170   0.48534   Biso      1.000     C          0.106968  
         C17       1.0000    0.20300   0.63800   0.73186   Biso      1.000     C          -0.168309           
         C18       1.0000    0.87370   0.47530   0.14948   Biso      1.000     C          0.081516  
         C19       1.0000    0.72720   0.33700   0.14933   Biso      1.000     C          0.69416   
         C20       1.0000    0.86150   0.18230   0.18673   Biso      1.000     C          0.689794  
         C21       1.0000    0.81780   0.36400   0.17846   Biso      1.000     C          -0.300565           
         C22       1.0000    0.77170   0.33380   0.35357   Biso      1.000     C          0.592382  
         C23       1.0000    0.78540   0.72560   0.26959   Biso      1.000     C          -0.102579           
         C24       1.0000    0.19320   0.54390   0.77338   Biso      1.000     C          0.081039  
         C25       1.0000    0.79980   0.63940   0.22790   Biso      1.000     C          -0.137357           
         C26       1.0000    0.80680   0.45610   0.22662   Biso      1.000     C          0.081038  
         C27       1.0000    0.79700   0.36200   0.26814   Biso      1.000     C          -0.168309           
         C28       1.0000    0.78340   0.44730   0.31061   Biso      1.000     C          -0.046171           
         C29       1.0000    0.77730   0.63100   0.31152   Biso      1.000     C          0.001743  
         C30       1.0000    0.76130   0.74120   0.35483   Biso      1.000     C          0.600845  
         C31       1.0000    0.21460   0.27440   0.73041   Biso      1.000     C          -0.102576           
         C32       1.0000    0.94760   0.55150   0.17456   Biso      1.000     C          -0.126957           
         C33       1.0000    0.22830   0.66620   0.64643   Biso      1.000     C          0.592382  
         C34       1.0000    0.42260   0.31700   0.53429   Biso      1.000     C          -0.188186           
         C35       1.0000    0.28160   0.38390   0.46933   Biso      1.000     C          0.098931  
         C36       1.0000    0.65420   0.34170   0.98706   Biso      1.000     C          0.095037  
         C37       1.0000    0.88110   0.87650   0.52041   Biso      1.000     C          0.599347  
         C38       1.0000    0.04140   0.72040   0.57583   Biso      1.000     C          0.605743  
         C39       1.0000    0.50590   0.27230   0.96951   Biso      1.000     C          0.100882  
         C40       1.0000    0.85540   0.00280   0.59949   Biso      1.000     C          -0.18057  
         C41       1.0000    0.90790   0.90340   0.57461   Biso      1.000     C          -0.041679           
         C42       1.0000    0.98070   0.82560   0.60034   Biso      1.000     C          0.001126  
         C43       1.0000    0.50950   0.32310   0.92238   Biso      1.000     C          -0.187637           
         C44       1.0000    0.00010   0.85100   0.65036   Biso      1.000     C          -0.096376           
         C45       1.0000    0.94760   0.94850   0.67456   Biso      1.000     C          -0.126957           
         C46       1.0000    0.87370   0.02470   0.64948   Biso      1.000     C          0.081516  
         C47       1.0000    0.72720   0.16300   0.64933   Biso      1.000     C          0.69416   
         C48       1.0000    0.86150   0.31770   0.68673   Biso      1.000     C          0.689794  
         C49       1.0000    0.81780   0.13600   0.67846   Biso      1.000     C          -0.300565           
         C50       1.0000    0.34820   0.37380   0.54838   Biso      1.000     C          0.110651  
         C51       1.0000    0.77170   0.16620   0.85357   Biso      1.000     C          0.592382  
         C52       1.0000    0.78540   0.77440   0.76959   Biso      1.000     C          -0.102579           
         C53       1.0000    0.79980   0.86060   0.72790   Biso      1.000     C          -0.137357           
         C54       1.0000    0.80680   0.04390   0.72662   Biso      1.000     C          0.081038  
         C55       1.0000    0.42680   0.20830   0.98534   Biso      1.000     C          0.106968  
         C56       1.0000    0.79700   0.13800   0.76814   Biso      1.000     C          -0.168309           
         C57       1.0000    0.78340   0.05270   0.81061   Biso      1.000     C          -0.046171           
         C58       1.0000    0.77730   0.86900   0.81152   Biso      1.000     C          0.001743  
         C59       1.0000    0.76130   0.75880   0.85483   Biso      1.000     C          0.600845  
         C60       1.0000    0.42260   0.18300   0.03429   Biso      1.000     C          -0.188186           
         C61       1.0000    0.34820   0.12620   0.04838   Biso      1.000     C          0.110652  
         C62       1.0000    0.28160   0.11610   0.96933   Biso      1.000     C          0.098931  
         C63       1.0000    0.35360   0.17130   0.95224   Biso      1.000     C          -0.182634           
         C64       1.0000    0.64640   0.67130   0.54776   Biso      1.000     C          -0.182636           
         C65       1.0000    0.35360   0.32870   0.45224   Biso      1.000     C          -0.182634           
         C66       1.0000    0.58550   0.38130   0.91041   Biso      1.000     C          0.112323  
         C67       1.0000    0.18220   0.63600   0.82154   Biso      1.000     C          -0.300565           
         C68       1.0000    0.58130   0.28260   0.00196   Biso      1.000     C          -0.196889           
         C69       1.0000    0.27280   0.66300   0.85067   Biso      1.000     C          0.69416   
         C70       1.0000    0.18220   0.86400   0.32154   Biso      1.000     C          -0.300565           
         C71       1.0000    0.21460   0.22560   0.23041   Biso      1.000     C          -0.102579           
         C72       1.0000    0.49050   0.67690   0.07762   Biso      1.000     C          -0.187641           
         C73       1.0000    0.49410   0.72770   0.03049   Biso      1.000     C          0.100885  
         C74       1.0000    0.95860   0.22040   0.92417   Biso      1.000     C          0.605743  
         C75       1.0000    0.41870   0.71740   0.99804   Biso      1.000     C          -0.196893           
         C76       1.0000    0.11890   0.37650   0.97959   Biso      1.000     C          0.599347  
         C77       1.0000    0.34580   0.65830   0.01294   Biso      1.000     C          0.09504   
         C78       1.0000    0.11890   0.12350   0.47959   Biso      1.000     C          0.599347  
         C79       1.0000    0.95860   0.27960   0.42417   Biso      1.000     C          0.605743  
         C80       1.0000    0.34580   0.84170   0.51294   Biso      1.000     C          0.095037  
         C81       1.0000    0.14460   0.99720   0.40051   Biso      1.000     C          -0.18057  
         C82       1.0000    0.09210   0.09660   0.42539   Biso      1.000     C          -0.041679           
         C83       1.0000    0.22830   0.83380   0.14643   Biso      1.000     C          0.592382  
         C84       1.0000    0.01930   0.17440   0.39966   Biso      1.000     C          0.001126  
         C85       1.0000    0.99990   0.14900   0.34964   Biso      1.000     C          -0.096376           
         C86       1.0000    0.41870   0.78260   0.49804   Biso      1.000     C          -0.196889           
         C87       1.0000    0.05240   0.05150   0.32544   Biso      1.000     C          -0.126957           
         C88       1.0000    0.12630   0.97530   0.35052   Biso      1.000     C          0.081516  
         C89       1.0000    0.13850   0.81770   0.81327   Biso      1.000     C          0.689794  
         C90       1.0000    0.27280   0.83700   0.35067   Biso      1.000     C          0.69416   
         C91       1.0000    0.14460   0.50280   0.90051   Biso      1.000     C          -0.18057  
         C92       1.0000    0.57320   0.79170   0.01466   Biso      1.000     C          0.106968  
         C93       1.0000    0.41450   0.61870   0.08959   Biso      1.000     C          0.112323  
         C94       1.0000    0.09210   0.40340   0.92539   Biso      1.000     C          -0.041679           
         C95       1.0000    0.12630   0.52470   0.85052   Biso      1.000     C          0.081516  
         C96       1.0000    0.05240   0.44850   0.82544   Biso      1.000     C          -0.126958           
         C97       1.0000    0.71840   0.61610   0.53067   Biso      1.000     C          0.098932  
         C98       1.0000    0.65180   0.62620   0.45162   Biso      1.000     C          0.11065   
         C99       1.0000    0.57740   0.68300   0.46571   Biso      1.000     C          -0.188186           
         C100      1.0000    0.57320   0.70830   0.51466   Biso      1.000     C          0.106969  
         C101      1.0000    0.41450   0.88130   0.58959   Biso      1.000     C          0.112322  
         C102      1.0000    0.57740   0.81700   0.96571   Biso      1.000     C          -0.188186           
         C103      1.0000    0.22270   0.13100   0.18848   Biso      1.000     C          0.001744  
         C104      1.0000    0.21660   0.94730   0.18939   Biso      1.000     C          -0.046171           
         C105      1.0000    0.23870   0.24120   0.14517   Biso      1.000     C          0.600845  
         C106      1.0000    0.49050   0.82310   0.57762   Biso      1.000     C          -0.18764  
         C107      1.0000    0.99990   0.35100   0.84964   Biso      1.000     C          -0.096375           
         C108      1.0000    0.19320   0.95610   0.27338   Biso      1.000     C          0.081038  
         C109      1.0000    0.64640   0.82870   0.04776   Biso      1.000     C          -0.182635           
         C110      1.0000    0.20020   0.13940   0.27210   Biso      1.000     C          -0.137357           
         C111      1.0000    0.71840   0.88390   0.03067   Biso      1.000     C          0.098932  
         C112      1.0000    0.01930   0.32560   0.89966   Biso      1.000     C          0.001126  
         C113      1.0000    0.49410   0.77230   0.53049   Biso      1.000     C          0.100885  
         C114      1.0000    0.65180   0.87380   0.95162   Biso      1.000     C          0.110652  
         C115      1.0000    0.20300   0.86200   0.23186   Biso      1.000     C          -0.168309           
         C116      1.0000    0.13850   0.68230   0.31327   Biso      1.000     C          0.689794  
         Cd1       1.0000    0.21561   0.97396   0.58014   Biso      1.000     Cd          0.964334  
         Cd2       1.0000    0.15100   0.45735   0.54651   Biso      1.000     Cd          1.000287  
         Cd3       1.0000    0.84900   0.95735   0.95349   Biso      1.000     Cd          1.000287  
         Cd4       1.0000    0.78439   0.47396   0.91986   Biso      1.000     Cd          0.964334  
         Cd5       1.0000    0.15100   0.04265   0.04651   Biso      1.000     Cd          1.000287  
         Cd6       1.0000    0.21561   0.52604   0.08014   Biso      1.000     Cd          0.964334  
         Cd7       1.0000    0.84900   0.54265   0.45349   Biso      1.000     Cd          1.000287  
         Cd8       1.0000    0.78439   0.02604   0.41986   Biso      1.000     Cd          0.964334  
         F1        1.0000    0.27510   0.77090   0.88927   Biso      1.000     F          -0.21569  
         F2        1.0000    0.32360   0.73720   0.82262   Biso      1.000     F          -0.216248           
         F3        1.0000    0.81140   0.05770   0.20196   Biso      1.000     F          -0.208229           
         F4        1.0000    0.93080   0.19120   0.22057   Biso      1.000     F          -0.179077           
         F5        1.0000    0.18860   0.55770   0.29804   Biso      1.000     F          -0.208229           
         F6        1.0000    0.06920   0.69120   0.27943   Biso      1.000     F          -0.179077           
         F7        1.0000    0.11550   0.61930   0.35374   Biso      1.000     F          -0.198442           
         F8        1.0000    0.30796   0.98840   0.36690   Biso      1.000     F          -0.193277           
         F9        1.0000    0.32360   0.76280   0.32262   Biso      1.000     F          -0.216248           
         F10       1.0000    0.88450   0.11930   0.14626   Biso      1.000     F          -0.198442           
         F11       1.0000    0.72490   0.22910   0.11073   Biso      1.000     F          -0.21569  
         F12       1.0000    0.69204   0.48840   0.13310   Biso      1.000     F          -0.193277           
         F13       1.0000    0.67640   0.26280   0.17738   Biso      1.000     F          -0.216248           
         F14       1.0000    0.27510   0.72910   0.38927   Biso      1.000     F          -0.21569  
         F15       1.0000    0.81140   0.44230   0.70196   Biso      1.000     F          -0.208229           
         F16       1.0000    0.30796   0.51160   0.86690   Biso      1.000     F          -0.193277           
         F17       1.0000    0.18860   0.94230   0.79804   Biso      1.000     F          -0.208229           
         F18       1.0000    0.88450   0.38070   0.64626   Biso      1.000     F          -0.198442           
         F19       1.0000    0.72490   0.27090   0.61073   Biso      1.000     F          -0.21569  
         F20       1.0000    0.69204   0.01160   0.63310   Biso      1.000     F          -0.193277           
         F21       1.0000    0.67640   0.23720   0.67738   Biso      1.000     F          -0.216248           
         F22       1.0000    0.11550   0.88070   0.85374   Biso      1.000     F          -0.198442           
         F23       1.0000    0.06920   0.80880   0.77943   Biso      1.000     F          -0.179077           
         F24       1.0000    0.93080   0.30880   0.72057   Biso      1.000     F          -0.179077           
         H1        1.0000    0.21880   0.15160   0.73040   Biso      1.000     H          0.123517  
         H2        1.0000    0.76670   0.59260   0.55340   Biso      1.000     H          0.100731  
         H3        1.0000    0.19520   0.29480   0.79970   Biso      1.000     H          0.108185  
         H4        1.0000    0.65250   0.60930   0.41860   Biso      1.000     H          0.110441  
         H5        1.0000    0.52990   0.70440   0.44220   Biso      1.000     H          0.13235   
         H6        1.0000    0.29630   0.84690   0.49000   Biso      1.000     H          0.098034  
         H7        1.0000    0.41420   0.91520   0.62170   Biso      1.000     H          0.109058  
         H8        1.0000    0.46110   0.31840   0.89860   Biso      1.000     H          0.132228  
         H9        1.0000    0.95080   0.30140   0.83220   Biso      1.000     H          0.119087  
         H10       1.0000    0.53890   0.81840   0.60140   Biso      1.000     H          0.132228  
         H11       1.0000    0.23330   0.09260   0.94660   Biso      1.000     H          0.100731  
         H12       1.0000    0.41720   0.74930   0.46570   Biso      1.000     H          0.117334  
         H13       1.0000    0.34750   0.10930   0.08140   Biso      1.000     H          0.110441  
         H14       1.0000    0.19300   0.55530   0.91790   Biso      1.000     H          0.106218  
         H15       1.0000    0.47010   0.20440   0.05780   Biso      1.000     H          0.13235   
         H16       1.0000    0.58580   0.41520   0.87830   Biso      1.000     H          0.109058  
         H17       1.0000    0.20050   0.76100   0.73240   Biso      1.000     H          0.115409  
         H18       1.0000    0.58280   0.24930   0.03430   Biso      1.000     H          0.117333  
         H19       1.0000    0.35300   0.18360   0.91890   Biso      1.000     H          0.135656  
         H20       1.0000    0.03840   0.46370   0.79190   Biso      1.000     H          0.114351  
         H21       1.0000    0.35300   0.31640   0.41890   Biso      1.000     H          0.135656  
         H22       1.0000    0.80700   0.05530   0.58210   Biso      1.000     H          0.106218  
         H23       1.0000    0.58580   0.08480   0.37830   Biso      1.000     H          0.109058  
         H24       1.0000    0.46110   0.18160   0.39860   Biso      1.000     H          0.132228  
         H25       1.0000    0.58280   0.25070   0.53430   Biso      1.000     H          0.117334  
         H26       1.0000    0.70370   0.15310   0.51000   Biso      1.000     H          0.098034  
         H27       1.0000    0.80700   0.44470   0.08210   Biso      1.000     H          0.106218  
         H28       1.0000    0.04920   0.69860   0.16780   Biso      1.000     H          0.119087  
         H29       1.0000    0.96160   0.53630   0.20810   Biso      1.000     H          0.11435   
         H30       1.0000    0.78120   0.84840   0.26960   Biso      1.000     H          0.123517  
         H31       1.0000    0.70370   0.34690   0.01000   Biso      1.000     H          0.098034  
         H32       1.0000    0.79950   0.23900   0.26760   Biso      1.000     H          0.115409  
         H33       1.0000    0.64700   0.81640   0.08110   Biso      1.000     H          0.135656  
         H34       1.0000    0.47010   0.29560   0.55780   Biso      1.000     H          0.13235   
         H35       1.0000    0.76670   0.90740   0.05340   Biso      1.000     H          0.100731  
         H36       1.0000    0.52990   0.79560   0.94220   Biso      1.000     H          0.13235   
         H37       1.0000    0.41420   0.58480   0.12170   Biso      1.000     H          0.109058  
         H38       1.0000    0.53890   0.68160   0.10140   Biso      1.000     H          0.132228  
         H39       1.0000    0.41720   0.75070   0.96570   Biso      1.000     H          0.117334  
         H40       1.0000    0.29630   0.65310   0.99000   Biso      1.000     H          0.098034  
         H41       1.0000    0.19300   0.94470   0.41790   Biso      1.000     H          0.106218  
         H42       1.0000    0.95080   0.19860   0.33220   Biso      1.000     H          0.119087  
         H43       1.0000    0.03840   0.03630   0.29190   Biso      1.000     H          0.11435   
         H44       1.0000    0.21880   0.34840   0.23040   Biso      1.000     H          0.123517  
         H45       1.0000    0.19520   0.20520   0.29970   Biso      1.000     H          0.108185  
         H46       1.0000    0.20050   0.73900   0.23240   Biso      1.000     H          0.115409  
         H47       1.0000    0.65250   0.89070   0.91860   Biso      1.000     H          0.110441  
         H48       1.0000    0.34750   0.39070   0.58140   Biso      1.000     H          0.110441  
         H49       1.0000    0.80480   0.70520   0.20030   Biso      1.000     H          0.108185  
         H50       1.0000    0.64700   0.68360   0.58110   Biso      1.000     H          0.135656  
         H51       1.0000    0.04920   0.80140   0.66780   Biso      1.000     H          0.119087  
         H52       1.0000    0.96160   0.96370   0.70810   Biso      1.000     H          0.11435   
         H53       1.0000    0.78120   0.65160   0.76960   Biso      1.000     H          0.123517  
         H54       1.0000    0.80480   0.79480   0.70030   Biso      1.000     H          0.108185  
         H55       1.0000    0.79950   0.26100   0.76760   Biso      1.000     H          0.115409  
         H56       1.0000    0.23330   0.40740   0.44660   Biso      1.000     H          0.100731  
         N1        1.0000    0.34271   0.60810   0.05865   Biso      1.000     N          -0.216101           
         N2        1.0000    0.72262   0.90550   0.98336   Biso      1.000     N          -0.235345           
         N3        1.0000    0.27738   0.09450   0.01664   Biso      1.000     N          -0.235345           
         N4        1.0000    0.65729   0.39190   0.94135   Biso      1.000     N          -0.216101           
         N5        1.0000    0.65729   0.10810   0.44135   Biso      1.000     N          -0.216101           
         N6        1.0000    0.72262   0.59450   0.48336   Biso      1.000     N          -0.235345           
         N7        1.0000    0.27738   0.40550   0.51664   Biso      1.000     N          -0.235345           
         N8        1.0000    0.34271   0.89190   0.55865   Biso      1.000     N          -0.216101           
         O1        1.0000    0.21943   0.83030   0.65094   Biso      1.000     O          -0.525788           
         O2        1.0000    0.90343   0.30100   0.94264   Biso      1.000     O          -0.583441           
         O3        1.0000    0.96237   0.05350   0.92239   Biso      1.000     O          -0.529796           
         O4        1.0000    0.08121   0.26000   0.99984   Biso      1.000     O          -0.545241           
         O5        1.0000    0.17962   0.46940   0.00002   Biso      1.000     O          -0.574094           
         O6        1.0000    0.24574   0.59280   0.60858   Biso      1.000     O          -0.628767           
         O7        1.0000    0.82038   0.53060   0.99998   Biso      1.000     O          -0.574094           
         O8        1.0000    0.96237   0.44650   0.42239   Biso      1.000     O          -0.529796           
         O9        1.0000    0.90343   0.19900   0.44264   Biso      1.000     O          -0.583441           
         O10       1.0000    0.21943   0.66970   0.15094   Biso      1.000     O          -0.525788           
         O11       1.0000    0.24574   0.90720   0.10858   Biso      1.000     O          -0.628767           
         O12       1.0000    0.30694   0.31820   0.14816   Biso      1.000     O          -0.557358           
         O13       1.0000    0.17731   0.26370   0.10964   Biso      1.000     O          -0.596902           
         O14       1.0000    0.08121   0.24000   0.49984   Biso      1.000     O          -0.545241           
         O15       1.0000    0.17962   0.03060   0.50002   Biso      1.000     O          -0.574094           
         O16       1.0000    0.30694   0.18180   0.64816   Biso      1.000     O          -0.557358           
         O17       1.0000    0.82038   0.96940   0.49998   Biso      1.000     O          -0.574094           
         O18       1.0000    0.91879   0.76000   0.50016   Biso      1.000     O          -0.545241           
         O19       1.0000    0.03763   0.55350   0.57761   Biso      1.000     O          -0.529796           
         O20       1.0000    0.09657   0.80100   0.55736   Biso      1.000     O          -0.583441           
         O21       1.0000    0.82269   0.73630   0.89036   Biso      1.000     O          -0.596902           
         O22       1.0000    0.75426   0.09280   0.89142   Biso      1.000     O          -0.628767           
         O23       1.0000    0.69306   0.68180   0.85184   Biso      1.000     O          -0.557358           
         O24       1.0000    0.82269   0.76370   0.39036   Biso      1.000     O          -0.596902           
         O25       1.0000    0.69306   0.81820   0.35184   Biso      1.000     O          -0.557358           
         O26       1.0000    0.75426   0.40720   0.39142   Biso      1.000     O          -0.628767           
         O27       1.0000    0.78057   0.16970   0.34906   Biso      1.000     O          -0.525788           
         O28       1.0000    0.09657   0.69900   0.05736   Biso      1.000     O          -0.583441           
         O29       1.0000    0.03763   0.94650   0.07761   Biso      1.000     O          -0.529796           
         O30       1.0000    0.91879   0.74000   0.00016   Biso      1.000     O          -0.545241           
         O31       1.0000    0.17731   0.23630   0.60964   Biso      1.000     O          -0.596902           
         O32       1.0000    0.78057   0.33030   0.84906   Biso      1.000     O          -0.525788 