
##########################################################################
#               Crystallographic Information Format file
#               Produced by PyCifRW module
#
#  This is a CIF file.  CIF has been adopted by the International
#  Union of Crystallography as the standard for data archiving and
#  transmission.
#
#  For information on this file format, follow the CIF links at
#  http://www.iucr.org
##########################################################################

data_image0

_cell_length_a                          9.543
_cell_length_b                          13.8215
_cell_length_c                          15.2993
_cell_angle_alpha                       90
_cell_angle_beta                        93.388
_cell_angle_gamma                       90
_symmetry_space_group_name_H-M          'P 1'
_symmetry_int_tables_number             1
loop_
  _symmetry_equiv_pos_as_xyz
         'x, y, z' 
loop_
  _atom_site_label
  _atom_site_occupancy
  _atom_site_fract_x
  _atom_site_fract_y
  _atom_site_fract_z
  _atom_site_thermal_displace_type
  _atom_site_B_iso_or_equiv
  _atom_site_type_symbol
  _atom_site_charge
         C1        1.0000    0.60620   0.37280   0.70520   Biso      1.000     C          -0.218546           
         C2        1.0000    0.49670   0.23340   0.77630   Biso      1.000     C          0.64047   
         C3        1.0000    0.19240   0.47970   0.61110   Biso      1.000     C          0.684086  
         C4        1.0000    0.71890   0.50850   0.62280   Biso      1.000     C          0.63999   
         C5        1.0000    0.47980   0.30280   0.69930   Biso      1.000     C          -0.093809           
         C6        1.0000    0.33990   0.35760   0.69410   Biso      1.000     C          -0.22110100000000002          
         C7        1.0000    0.33140   0.42650   0.61680   Biso      1.000     C          -0.113325           
         C8        1.0000    0.10620   0.12720   0.20520   Biso      1.000     C          -0.218546           
         C9        1.0000    0.45320   0.49590   0.62230   Biso      1.000     C          -0.22083899999999998          
         C10       1.0000    0.00330   0.73340   0.72370   Biso      1.000     C          0.64047   
         C11       1.0000    0.30760   0.97970   0.88890   Biso      1.000     C          0.684086  
         C12       1.0000    0.78110   0.00850   0.87720   Biso      1.000     C          0.639991  
         C13       1.0000    0.02020   0.80280   0.80070   Biso      1.000     C          -0.093809           
         C14       1.0000    0.16010   0.85760   0.80590   Biso      1.000     C          -0.22110100000000002          
         C15       1.0000    0.16860   0.92650   0.88320   Biso      1.000     C          -0.113325           
         C16       1.0000    0.59360   0.44350   0.62770   Biso      1.000     C          -0.095973           
         C17       1.0000    0.90640   0.94350   0.87230   Biso      1.000     C          -0.095973           
         C18       1.0000    0.09360   0.05650   0.12770   Biso      1.000     C          -0.095973           
         C19       1.0000    0.83140   0.07350   0.11680   Biso      1.000     C          -0.113325           
         C20       1.0000    0.50330   0.76660   0.22370   Biso      1.000     C          0.64047   
         C21       1.0000    0.80760   0.52030   0.38890   Biso      1.000     C          0.684086  
         C22       1.0000    0.28110   0.49150   0.37720   Biso      1.000     C          0.63999   
         C23       1.0000    0.52020   0.69720   0.30070   Biso      1.000     C          -0.093809           
         C24       1.0000    0.66010   0.64240   0.30590   Biso      1.000     C          -0.22110100000000002          
         C25       1.0000    0.66860   0.57350   0.38320   Biso      1.000     C          -0.113325           
         C26       1.0000    0.95320   0.00410   0.12230   Biso      1.000     C          -0.220838           
         C27       1.0000    0.54680   0.50410   0.37770   Biso      1.000     C          -0.220838           
         C28       1.0000    0.39380   0.62720   0.29480   Biso      1.000     C          -0.218546           
         C29       1.0000    0.99670   0.26660   0.27630   Biso      1.000     C          0.64047   
         C30       1.0000    0.69240   0.02030   0.11110   Biso      1.000     C          0.684086  
         C31       1.0000    0.21890   0.99150   0.12280   Biso      1.000     C          0.639991  
         C32       1.0000    0.97980   0.19720   0.19930   Biso      1.000     C          -0.093809           
         C33       1.0000    0.83990   0.14240   0.19410   Biso      1.000     C          -0.22110100000000002          
         C34       1.0000    0.40640   0.55650   0.37230   Biso      1.000     C          -0.095973           
         C35       1.0000    0.89380   0.87280   0.79480   Biso      1.000     C          -0.218546           
         C36       1.0000    0.04680   0.99590   0.87770   Biso      1.000     C          -0.22083899999999998          
         H1        1.0000    0.66260   0.61190   0.43670   Biso      1.000     H          0.08659800000000001           
         H2        1.0000    0.33080   0.39380   0.74780   Biso      1.000     H          0.125316  
         H3        1.0000    0.33740   0.38810   0.56330   Biso      1.000     H          0.08659800000000001           
         H4        1.0000    0.44680   0.53650   0.67360   Biso      1.000     H          0.123162  
         H5        1.0000    0.55320   0.46350   0.32640   Biso      1.000     H          0.123162  
         H6        1.0000    0.59310   0.40300   0.57510   Biso      1.000     H          0.096825  
         H7        1.0000    0.69310   0.33650   0.70370   Biso      1.000     H          0.126194  
         H8        1.0000    0.60760   0.40840   0.75990   Biso      1.000     H          0.11820599999999999           
         H9        1.0000    0.26300   0.31180   0.68830   Biso      1.000     H          0.11493800000000001           
         H10       1.0000    0.01510   0.76490   0.85460   Biso      1.000     H          0.100135  
         H11       1.0000    0.16920   0.89380   0.75220   Biso      1.000     H          0.125316  
         H12       1.0000    0.16260   0.88810   0.93670   Biso      1.000     H          0.08659800000000001           
         H13       1.0000    0.05320   0.03650   0.82640   Biso      1.000     H          0.123162  
         H14       1.0000    0.05210   0.03750   0.92890   Biso      1.000     H          0.107393  
         H15       1.0000    0.90690   0.90300   0.92490   Biso      1.000     H          0.096825  
         H16       1.0000    0.80690   0.83650   0.79630   Biso      1.000     H          0.126194  
         H17       1.0000    0.89240   0.90840   0.74010   Biso      1.000     H          0.11820599999999999           
         H18       1.0000    0.23700   0.81180   0.81170   Biso      1.000     H          0.11493800000000001           
         H19       1.0000    0.48490   0.26490   0.64540   Biso      1.000     H          0.100135  
         H20       1.0000    0.44790   0.53750   0.57110   Biso      1.000     H          0.107393  
         H21       1.0000    0.19310   0.16350   0.20370   Biso      1.000     H          0.126194  
         H22       1.0000    0.66920   0.60620   0.25220   Biso      1.000     H          0.125316  
         H23       1.0000    0.73700   0.68820   0.31170   Biso      1.000     H          0.11493800000000001           
         H24       1.0000    0.10760   0.09160   0.25990   Biso      1.000     H          0.11820599999999999           
         H25       1.0000    0.55210   0.46250   0.42890   Biso      1.000     H          0.107393  
         H26       1.0000    0.40690   0.59700   0.42490   Biso      1.000     H          0.096825  
         H27       1.0000    0.30690   0.66350   0.29630   Biso      1.000     H          0.126194  
         H28       1.0000    0.39240   0.59160   0.24010   Biso      1.000     H          0.11820599999999999           
         H29       1.0000    0.51510   0.73510   0.35460   Biso      1.000     H          0.100135  
         H30       1.0000    0.76300   0.18820   0.18830   Biso      1.000     H          0.11493800000000001           
         H31       1.0000    0.83080   0.10620   0.24780   Biso      1.000     H          0.125316  
         H32       1.0000    0.83740   0.11190   0.06330   Biso      1.000     H          0.08659800000000001           
         H33       1.0000    0.94680   0.96350   0.17360   Biso      1.000     H          0.123162  
         H34       1.0000    0.94790   0.96250   0.07110   Biso      1.000     H          0.107393  
         H35       1.0000    0.09310   0.09700   0.07510   Biso      1.000     H          0.096825  
         H36       1.0000    0.98490   0.23510   0.14540   Biso      1.000     H          0.100135  
         O1        1.0000    0.10580   0.46150   0.54720   Biso      1.000     O          -0.807235           
         O2        1.0000    0.34060   0.02840   0.13470   Biso      1.000     O          -0.6562899999999999           
         O3        1.0000    0.20640   0.90470   0.10140   Biso      1.000     O          -0.6468649999999999           
         O4        1.0000    0.07940   0.33690   0.26990   Biso      1.000     O          -0.646551           
         O5        1.0000    0.93310   0.25280   0.34370   Biso      1.000     O          -0.687    
         O6        1.0000    0.42060   0.83690   0.23010   Biso      1.000     O          -0.646551           
         O7        1.0000    0.60580   0.03850   0.04720   Biso      1.000     O          -0.807235           
         O8        1.0000    0.56690   0.75280   0.15630   Biso      1.000     O          -0.687    
         O9        1.0000    0.29360   0.40470   0.39860   Biso      1.000     O          -0.6468649999999999           
         O10       1.0000    0.15940   0.52840   0.36530   Biso      1.000     O          -0.6562899999999999           
         O11       1.0000    0.16230   0.54360   0.66380   Biso      1.000     O          -0.5878399999999999           
         O12       1.0000    0.66230   0.95640   0.16380   Biso      1.000     O          -0.5878399999999999           
         O13       1.0000    0.43310   0.24720   0.84370   Biso      1.000     O          -0.687    
         O14       1.0000    0.89420   0.53850   0.45280   Biso      1.000     O          -0.807235           
         O15       1.0000    0.70640   0.59530   0.60140   Biso      1.000     O          -0.6468649999999999           
         O16       1.0000    0.84060   0.47160   0.63470   Biso      1.000     O          -0.6562899999999999           
         O17       1.0000    0.39420   0.96150   0.95280   Biso      1.000     O          -0.807235           
         O18       1.0000    0.33770   0.04360   0.83620   Biso      1.000     O          -0.5878399999999999           
         O19       1.0000    0.06690   0.74720   0.65630   Biso      1.000     O          -0.687    
         O20       1.0000    0.92060   0.66310   0.73010   Biso      1.000     O          -0.646551           
         O21       1.0000    0.79360   0.09530   0.89860   Biso      1.000     O          -0.6468649999999999           
         O22       1.0000    0.65940   0.97160   0.86530   Biso      1.000     O          -0.6562899999999999           
         O23       1.0000    0.83770   0.45640   0.33620   Biso      1.000     O          -0.5878399999999999           
         O24       1.0000    0.57940   0.16310   0.76990   Biso      1.000     O          -0.646551           
         Tm1       1.0000    0.04323   0.38863   0.41444   Biso      1.000     Tm          2.03206   
         Tm2       1.0000    0.45677   0.88863   0.08556   Biso      1.000     Tm          2.03206   
         Tm3       1.0000    0.95677   0.61137   0.58556   Biso      1.000     Tm          2.03206   
         Tm4       1.0000    0.54323   0.11137   0.91444   Biso      1.000     Tm          2.03206 