
##########################################################################
#               Crystallographic Information Format file
#               Produced by PyCifRW module
#
#  This is a CIF file.  CIF has been adopted by the International
#  Union of Crystallography as the standard for data archiving and
#  transmission.
#
#  For information on this file format, follow the CIF links at
#  http://www.iucr.org
##########################################################################

data_image0

_cell_length_a                          9.5631
_cell_length_b                          13.8741
_cell_length_c                          15.3
_cell_angle_alpha                       90
_cell_angle_beta                        93.382
_cell_angle_gamma                       90
_symmetry_space_group_name_H-M          'P 1'
_symmetry_int_tables_number             1
loop_
  _symmetry_equiv_pos_as_xyz
         'x, y, z' 
loop_
  _atom_site_label
  _atom_site_occupancy
  _atom_site_fract_x
  _atom_site_fract_y
  _atom_site_fract_z
  _atom_site_thermal_displace_type
  _atom_site_B_iso_or_equiv
  _atom_site_type_symbol
  _atom_site_charge
         C1        1.0000    0.33940   0.64280   0.69410   Biso      1.000     C          -0.220977           
         C2        1.0000    0.49630   0.76520   0.77520   Biso      1.000     C          0.646154  
         C3        1.0000    0.19340   0.51950   0.61190   Biso      1.000     C          0.678391  
         C4        1.0000    0.33040   0.57430   0.61740   Biso      1.000     C          -0.111176           
         C5        1.0000    0.45310   0.50420   0.62280   Biso      1.000     C          -0.219933           
         C6        1.0000    0.59380   0.55560   0.62780   Biso      1.000     C          -0.100919           
         C7        1.0000    0.60440   0.62920   0.70610   Biso      1.000     C          -0.217389           
         C8        1.0000    0.71950   0.49120   0.62260   Biso      1.000     C          0.63398   
         C9        1.0000    0.48110   0.69740   0.69830   Biso      1.000     C          -0.093261           
         C10       1.0000    0.00370   0.26520   0.72480   Biso      1.000     C          0.646154  
         C11       1.0000    0.30660   0.01950   0.88810   Biso      1.000     C          0.678391  
         C12       1.0000    0.16960   0.07430   0.88260   Biso      1.000     C          -0.111176           
         C13       1.0000    0.04690   0.00420   0.87720   Biso      1.000     C          -0.219932           
         C14       1.0000    0.90620   0.05560   0.87220   Biso      1.000     C          -0.100919           
         C15       1.0000    0.89560   0.12920   0.79390   Biso      1.000     C          -0.217389           
         C16       1.0000    0.78050   0.99120   0.87740   Biso      1.000     C          0.63398   
         C17       1.0000    0.83940   0.85720   0.19410   Biso      1.000     C          -0.220978           
         C18       1.0000    0.98110   0.80260   0.19830   Biso      1.000     C          -0.093261           
         C19       1.0000    0.10440   0.87080   0.20610   Biso      1.000     C          -0.217389           
         C20       1.0000    0.28050   0.50880   0.37740   Biso      1.000     C          0.63398   
         C21       1.0000    0.50370   0.23480   0.22480   Biso      1.000     C          0.646154  
         C22       1.0000    0.80660   0.48050   0.38810   Biso      1.000     C          0.678391  
         C23       1.0000    0.66960   0.42570   0.38260   Biso      1.000     C          -0.111175           
         C24       1.0000    0.54690   0.49580   0.37720   Biso      1.000     C          -0.219932           
         C25       1.0000    0.40620   0.44440   0.37220   Biso      1.000     C          -0.100919           
         C26       1.0000    0.39560   0.37080   0.29390   Biso      1.000     C          -0.217389           
         C27       1.0000    0.51890   0.30260   0.30170   Biso      1.000     C          -0.093261           
         C28       1.0000    0.66060   0.35720   0.30590   Biso      1.000     C          -0.220978           
         C29       1.0000    0.21950   0.00880   0.12260   Biso      1.000     C          0.63398   
         C30       1.0000    0.99630   0.73480   0.27520   Biso      1.000     C          0.646154  
         C31       1.0000    0.69340   0.98050   0.11190   Biso      1.000     C          0.678391  
         C32       1.0000    0.83040   0.92570   0.11740   Biso      1.000     C          -0.111175           
         C33       1.0000    0.95310   0.99580   0.12280   Biso      1.000     C          -0.219932           
         C34       1.0000    0.09380   0.94440   0.12780   Biso      1.000     C          -0.100919           
         C35       1.0000    0.01890   0.19740   0.80170   Biso      1.000     C          -0.093261           
         C36       1.0000    0.16060   0.14280   0.80590   Biso      1.000     C          -0.220977           
         Er1       1.0000    0.54267   0.88905   0.91423   Biso      1.000     Er          2.02754   
         Er2       1.0000    0.95733   0.38905   0.58577   Biso      1.000     Er          2.02754   
         Er3       1.0000    0.45733   0.11095   0.08577   Biso      1.000     Er          2.027539  
         Er4       1.0000    0.04267   0.61095   0.41423   Biso      1.000     Er          2.027539  
         H1        1.0000    0.55270   0.53730   0.42840   Biso      1.000     H          0.106674  
         H2        1.0000    0.60460   0.59470   0.76120   Biso      1.000     H          0.117992  
         H3        1.0000    0.69110   0.66530   0.70490   Biso      1.000     H          0.126556  
         H4        1.0000    0.48690   0.73500   0.64440   Biso      1.000     H          0.104242  
         H5        1.0000    0.33060   0.60700   0.74800   Biso      1.000     H          0.126499  
         H6        1.0000    0.26300   0.68870   0.68840   Biso      1.000     H          0.116336  
         H7        1.0000    0.16430   0.11230   0.93630   Biso      1.000     H          0.085978  
         H8        1.0000    0.05330   0.96370   0.82590   Biso      1.000     H          0.122924  
         H9        1.0000    0.90710   0.09550   0.92500   Biso      1.000     H          0.096503  
         H10       1.0000    0.59290   0.59550   0.57500   Biso      1.000     H          0.096503  
         H11       1.0000    0.40710   0.40450   0.42500   Biso      1.000     H          0.096503  
         H12       1.0000    0.80890   0.16530   0.79510   Biso      1.000     H          0.126556  
         H13       1.0000    0.01310   0.23500   0.85560   Biso      1.000     H          0.104242  
         H14       1.0000    0.16940   0.10700   0.75200   Biso      1.000     H          0.126499  
         H15       1.0000    0.23700   0.18870   0.81160   Biso      1.000     H          0.116336  
         H16       1.0000    0.05270   0.96270   0.92840   Biso      1.000     H          0.106674  
         H17       1.0000    0.44730   0.46270   0.57160   Biso      1.000     H          0.106674  
         H18       1.0000    0.89540   0.09470   0.73880   Biso      1.000     H          0.117992  
         H19       1.0000    0.33570   0.61230   0.56370   Biso      1.000     H          0.085978  
         H20       1.0000    0.44670   0.46370   0.67410   Biso      1.000     H          0.122923  
         H21       1.0000    0.55330   0.53630   0.32590   Biso      1.000     H          0.122923  
         H22       1.0000    0.66430   0.38770   0.43630   Biso      1.000     H          0.085978  
         H23       1.0000    0.39540   0.40530   0.23880   Biso      1.000     H          0.117992  
         H24       1.0000    0.51310   0.26500   0.35560   Biso      1.000     H          0.104242  
         H25       1.0000    0.66940   0.39300   0.25200   Biso      1.000     H          0.126499  
         H26       1.0000    0.73700   0.31130   0.31160   Biso      1.000     H          0.116336  
         H27       1.0000    0.83570   0.88770   0.06370   Biso      1.000     H          0.085978  
         H28       1.0000    0.30890   0.33470   0.29510   Biso      1.000     H          0.126556  
         H29       1.0000    0.94730   0.03730   0.07160   Biso      1.000     H          0.106674  
         H30       1.0000    0.09290   0.90450   0.07500   Biso      1.000     H          0.096503  
         H31       1.0000    0.10460   0.90530   0.26120   Biso      1.000     H          0.117992  
         H32       1.0000    0.19110   0.83470   0.20490   Biso      1.000     H          0.126556  
         H33       1.0000    0.98690   0.76500   0.14440   Biso      1.000     H          0.104242  
         H34       1.0000    0.83060   0.89300   0.24800   Biso      1.000     H          0.126499  
         H35       1.0000    0.94670   0.03630   0.17410   Biso      1.000     H          0.122923  
         H36       1.0000    0.76300   0.81130   0.18840   Biso      1.000     H          0.116336  
         O1        1.0000    0.60580   0.96250   0.04830   Biso      1.000     O          -0.805436           
         O2        1.0000    0.93240   0.74630   0.34400   Biso      1.000     O          -0.693855           
         O3        1.0000    0.07770   0.66330   0.26960   Biso      1.000     O          -0.650761           
         O4        1.0000    0.20610   0.09430   0.10120   Biso      1.000     O          -0.634209           
         O5        1.0000    0.89420   0.46250   0.45170   Biso      1.000     O          -0.805436           
         O6        1.0000    0.83600   0.54430   0.33480   Biso      1.000     O          -0.584421           
         O7        1.0000    0.56760   0.24630   0.15600   Biso      1.000     O          -0.693855           
         O8        1.0000    0.66400   0.04430   0.16520   Biso      1.000     O          -0.584421           
         O9        1.0000    0.42230   0.16330   0.23040   Biso      1.000     O          -0.650761           
         O10       1.0000    0.34120   0.97090   0.13650   Biso      1.000     O          -0.657434           
         O11       1.0000    0.84120   0.52910   0.63650   Biso      1.000     O          -0.657434           
         O12       1.0000    0.06760   0.25370   0.65600   Biso      1.000     O          -0.693855           
         O13       1.0000    0.57770   0.83670   0.76960   Biso      1.000     O          -0.650761           
         O14       1.0000    0.43240   0.75370   0.84400   Biso      1.000     O          -0.693855           
         O15       1.0000    0.10580   0.53750   0.54830   Biso      1.000     O          -0.805436           
         O16       1.0000    0.16400   0.45570   0.66520   Biso      1.000     O          -0.584421           
         O17       1.0000    0.65880   0.02910   0.86350   Biso      1.000     O          -0.657434           
         O18       1.0000    0.79390   0.90570   0.89880   Biso      1.000     O          -0.634209           
         O19       1.0000    0.92230   0.33670   0.73040   Biso      1.000     O          -0.650761           
         O20       1.0000    0.39420   0.03750   0.95170   Biso      1.000     O          -0.805436           
         O21       1.0000    0.33600   0.95570   0.83480   Biso      1.000     O          -0.584421           
         O22       1.0000    0.29390   0.59430   0.39880   Biso      1.000     O          -0.634209           
         O23       1.0000    0.70610   0.40570   0.60120   Biso      1.000     O          -0.634209           
         O24       1.0000    0.15880   0.47090   0.36350   Biso      1.000     O          -0.657434 