
##########################################################################
#               Crystallographic Information Format file
#               Produced by PyCifRW module
#
#  This is a CIF file.  CIF has been adopted by the International
#  Union of Crystallography as the standard for data archiving and
#  transmission.
#
#  For information on this file format, follow the CIF links at
#  http://www.iucr.org
##########################################################################

data_image0

_cell_length_a                          9.621
_cell_length_b                          13.908
_cell_length_c                          15.337
_cell_angle_alpha                       90
_cell_angle_beta                        93.425
_cell_angle_gamma                       90
_symmetry_space_group_name_H-M          'P 1'
_symmetry_int_tables_number             1
loop_
  _symmetry_equiv_pos_as_xyz
         'x, y, z' 
loop_
  _atom_site_label
  _atom_site_occupancy
  _atom_site_fract_x
  _atom_site_fract_y
  _atom_site_fract_z
  _atom_site_thermal_displace_type
  _atom_site_B_iso_or_equiv
  _atom_site_type_symbol
  _atom_site_charge
         C1        1.0000    0.84130   0.35730   0.69410   Biso      1.000     C          -0.217829           
         C2        1.0000    0.99530   0.23580   0.77490   Biso      1.000     C          0.643952  
         C3        1.0000    0.69220   0.48200   0.61320   Biso      1.000     C          0.672928  
         C4        1.0000    0.21780   0.50940   0.62390   Biso      1.000     C          0.626246  
         C5        1.0000    0.98120   0.30280   0.69850   Biso      1.000     C          -0.094962           
         C6        1.0000    0.10400   0.37160   0.70400   Biso      1.000     C          -0.215509           
         C7        1.0000    0.09270   0.44250   0.62780   Biso      1.000     C          -0.083413           
         C8        1.0000    0.34130   0.14270   0.19410   Biso      1.000     C          -0.217829           
         C9        1.0000    0.95370   0.49580   0.62310   Biso      1.000     C          -0.228678           
         C10       1.0000    0.50470   0.73580   0.72510   Biso      1.000     C          0.643952  
         C11       1.0000    0.80780   0.98200   0.88680   Biso      1.000     C          0.672928  
         C12       1.0000    0.28220   0.00940   0.87610   Biso      1.000     C          0.626246  
         C13       1.0000    0.51880   0.80280   0.80150   Biso      1.000     C          -0.094962           
         C14       1.0000    0.39600   0.87160   0.79600   Biso      1.000     C          -0.215509           
         C15       1.0000    0.40730   0.94250   0.87220   Biso      1.000     C          -0.083413           
         C16       1.0000    0.82970   0.42590   0.61970   Biso      1.000     C          -0.110507           
         C17       1.0000    0.67030   0.92590   0.88030   Biso      1.000     C          -0.110507           
         C18       1.0000    0.32970   0.07410   0.11970   Biso      1.000     C          -0.110507           
         C19       1.0000    0.59270   0.05750   0.12780   Biso      1.000     C          -0.083413           
         C20       1.0000    0.00470   0.76420   0.22510   Biso      1.000     C          0.643952  
         C21       1.0000    0.30780   0.51800   0.38680   Biso      1.000     C          0.672928  
         C22       1.0000    0.78220   0.49060   0.37610   Biso      1.000     C          0.626246  
         C23       1.0000    0.01880   0.69720   0.30150   Biso      1.000     C          -0.094962           
         C24       1.0000    0.89600   0.62840   0.29600   Biso      1.000     C          -0.215509           
         C25       1.0000    0.90730   0.55750   0.37220   Biso      1.000     C          -0.083413           
         C26       1.0000    0.45370   0.00420   0.12310   Biso      1.000     C          -0.228678           
         C27       1.0000    0.04630   0.50420   0.37690   Biso      1.000     C          -0.228678           
         C28       1.0000    0.15870   0.64270   0.30590   Biso      1.000     C          -0.217829           
         C29       1.0000    0.49530   0.26420   0.27490   Biso      1.000     C          0.643952  
         C30       1.0000    0.19220   0.01800   0.11320   Biso      1.000     C          0.672928  
         C31       1.0000    0.71780   0.99060   0.12390   Biso      1.000     C          0.626246  
         C32       1.0000    0.48120   0.19720   0.19850   Biso      1.000     C          -0.094962           
         C33       1.0000    0.60400   0.12840   0.20400   Biso      1.000     C          -0.215509           
         C34       1.0000    0.17030   0.57410   0.38030   Biso      1.000     C          -0.110507           
         C35       1.0000    0.65870   0.85730   0.80590   Biso      1.000     C          -0.217829           
         C36       1.0000    0.54630   0.99580   0.87690   Biso      1.000     C          -0.228678           
         H1        1.0000    0.90770   0.59670   0.42530   Biso      1.000     H          0.094177  
         H2        1.0000    0.19010   0.33550   0.70230   Biso      1.000     H          0.123653  
         H3        1.0000    0.09230   0.40330   0.57470   Biso      1.000     H          0.094177  
         H4        1.0000    0.94920   0.53710   0.67390   Biso      1.000     H          0.122875  
         H5        1.0000    0.05080   0.46290   0.32610   Biso      1.000     H          0.122875  
         H6        1.0000    0.83390   0.38810   0.56600   Biso      1.000     H          0.080331  
         H7        1.0000    0.76540   0.31140   0.68820   Biso      1.000     H          0.112975  
         H8        1.0000    0.83260   0.39230   0.74820   Biso      1.000     H          0.122993  
         H9        1.0000    0.10570   0.40650   0.75880   Biso      1.000     H          0.115939  
         H10       1.0000    0.51420   0.76470   0.85500   Biso      1.000     H          0.102099  
         H11       1.0000    0.30990   0.83550   0.79770   Biso      1.000     H          0.123653  
         H12       1.0000    0.40770   0.90330   0.92530   Biso      1.000     H          0.094177  
         H13       1.0000    0.55080   0.03710   0.82610   Biso      1.000     H          0.122875  
         H14       1.0000    0.55240   0.03630   0.92850   Biso      1.000     H          0.106083  
         H15       1.0000    0.66610   0.88810   0.93400   Biso      1.000     H          0.080331  
         H16       1.0000    0.73460   0.81140   0.81180   Biso      1.000     H          0.112975  
         H17       1.0000    0.66740   0.89230   0.75180   Biso      1.000     H          0.122993  
         H18       1.0000    0.39430   0.90650   0.74120   Biso      1.000     H          0.115939  
         H19       1.0000    0.98580   0.26470   0.64500   Biso      1.000     H          0.102099  
         H20       1.0000    0.94760   0.53630   0.57150   Biso      1.000     H          0.106083  
         H21       1.0000    0.26540   0.18860   0.18820   Biso      1.000     H          0.112975  
         H22       1.0000    0.80990   0.66450   0.29770   Biso      1.000     H          0.123653  
         H23       1.0000    0.89430   0.59350   0.24120   Biso      1.000     H          0.115939  
         H24       1.0000    0.33260   0.10770   0.24820   Biso      1.000     H          0.122993  
         H25       1.0000    0.05240   0.46370   0.42850   Biso      1.000     H          0.106083  
         H26       1.0000    0.16610   0.61190   0.43400   Biso      1.000     H          0.080331  
         H27       1.0000    0.23460   0.68860   0.31180   Biso      1.000     H          0.112975  
         H28       1.0000    0.16740   0.60770   0.25180   Biso      1.000     H          0.122992  
         H29       1.0000    0.01420   0.73530   0.35500   Biso      1.000     H          0.102099  
         H30       1.0000    0.60570   0.09350   0.25880   Biso      1.000     H          0.115939  
         H31       1.0000    0.69010   0.16450   0.20230   Biso      1.000     H          0.123653  
         H32       1.0000    0.59230   0.09670   0.07470   Biso      1.000     H          0.094177  
         H33       1.0000    0.44920   0.96290   0.17390   Biso      1.000     H          0.122875  
         H34       1.0000    0.44760   0.96370   0.07150   Biso      1.000     H          0.106083  
         H35       1.0000    0.33390   0.11190   0.06600   Biso      1.000     H          0.080331  
         H36       1.0000    0.48580   0.23530   0.14500   Biso      1.000     H          0.102099  
         O1        1.0000    0.93290   0.24950   0.84370   Biso      1.000     O          -0.690167           
         O2        1.0000    0.83820   0.02980   0.13640   Biso      1.000     O          -0.656504           
         O3        1.0000    0.70650   0.90450   0.10320   Biso      1.000     O          -0.630767           
         O4        1.0000    0.16760   0.95440   0.16670   Biso      1.000     O          -0.578527           
         O5        1.0000    0.10640   0.03710   0.05030   Biso      1.000     O          -0.793701           
         O6        1.0000    0.33240   0.45440   0.33330   Biso      1.000     O          -0.578527           
         O7        1.0000    0.43290   0.25050   0.34370   Biso      1.000     O          -0.690167           
         O8        1.0000    0.39360   0.53710   0.44970   Biso      1.000     O          -0.793701           
         O9        1.0000    0.79350   0.40450   0.39680   Biso      1.000     O          -0.630767           
         O10       1.0000    0.66180   0.52980   0.36360   Biso      1.000     O          -0.656504           
         O11       1.0000    0.07520   0.16530   0.76810   Biso      1.000     O          -0.641267           
         O12       1.0000    0.57520   0.33470   0.26810   Biso      1.000     O          -0.641267           
         O13       1.0000    0.60640   0.46290   0.55030   Biso      1.000     O          -0.793701           
         O14       1.0000    0.06710   0.75050   0.15630   Biso      1.000     O          -0.690167           
         O15       1.0000    0.20650   0.59550   0.60320   Biso      1.000     O          -0.630767           
         O16       1.0000    0.33820   0.47020   0.63640   Biso      1.000     O          -0.656504           
         O17       1.0000    0.56710   0.74950   0.65630   Biso      1.000     O          -0.690167           
         O18       1.0000    0.42480   0.66530   0.73190   Biso      1.000     O          -0.641267           
         O19       1.0000    0.89360   0.96290   0.94970   Biso      1.000     O          -0.793701           
         O20       1.0000    0.83240   0.04560   0.83330   Biso      1.000     O          -0.578527           
         O21       1.0000    0.29350   0.09550   0.89680   Biso      1.000     O          -0.630767           
         O22       1.0000    0.16180   0.97020   0.86360   Biso      1.000     O          -0.656504           
         O23       1.0000    0.92480   0.83470   0.23190   Biso      1.000     O          -0.641267           
         O24       1.0000    0.66760   0.54560   0.66670   Biso      1.000     O          -0.578527           
         Tb1       1.0000    0.54234   0.38853   0.41414   Biso      1.000     Tb          2.017579  
         Tb2       1.0000    0.95766   0.88853   0.08586   Biso      1.000     Tb          2.017579  
         Tb3       1.0000    0.45766   0.61147   0.58586   Biso      1.000     Tb          2.017579  
         Tb4       1.0000    0.04234   0.11147   0.91414   Biso      1.000     Tb          2.017579 