
##########################################################################
#               Crystallographic Information Format file
#               Produced by PyCifRW module
#
#  This is a CIF file.  CIF has been adopted by the International
#  Union of Crystallography as the standard for data archiving and
#  transmission.
#
#  For information on this file format, follow the CIF links at
#  http://www.iucr.org
##########################################################################

data_image0

_cell_length_a                          9.5983
_cell_length_b                          13.8789
_cell_length_c                          15.3443
_cell_angle_alpha                       90
_cell_angle_beta                        93.451
_cell_angle_gamma                       90
_symmetry_space_group_name_H-M          'P 1'
_symmetry_int_tables_number             1
loop_
  _symmetry_equiv_pos_as_xyz
         'x, y, z' 
loop_
  _atom_site_label
  _atom_site_occupancy
  _atom_site_fract_x
  _atom_site_fract_y
  _atom_site_fract_z
  _atom_site_thermal_displace_type
  _atom_site_B_iso_or_equiv
  _atom_site_type_symbol
  _atom_site_charge
         C1        1.0000    0.10300   0.62650   0.70240   Biso      1.000     C          -0.22156399999999998          
         C2        1.0000    0.99630   0.76540   0.77560   Biso      1.000     C          0.6446729999999999  
         C3        1.0000    0.21910   0.49110   0.62230   Biso      1.000     C          0.627322  
         C4        1.0000    0.09210   0.55680   0.62730   Biso      1.000     C          -0.07911  
         C5        1.0000    0.95330   0.50350   0.62280   Biso      1.000     C          -0.22609400000000002          
         C6        1.0000    0.83190   0.57270   0.61740   Biso      1.000     C          -0.11431199999999998          
         C7        1.0000    0.84060   0.64250   0.69400   Biso      1.000     C          -0.219685           
         C8        1.0000    0.69410   0.51870   0.61180   Biso      1.000     C          0.678454  
         C9        1.0000    0.98040   0.69710   0.69820   Biso      1.000     C          -0.095512           
         C10       1.0000    0.50370   0.26540   0.72440   Biso      1.000     C          0.6446729999999999  
         C11       1.0000    0.28090   0.99110   0.87770   Biso      1.000     C          0.627322  
         C12       1.0000    0.40790   0.05680   0.87270   Biso      1.000     C          -0.07911  
         C13       1.0000    0.54670   0.00350   0.87720   Biso      1.000     C          -0.22609400000000002          
         C14       1.0000    0.66810   0.07270   0.88260   Biso      1.000     C          -0.11431199999999998          
         C15       1.0000    0.65940   0.14250   0.80600   Biso      1.000     C          -0.219685           
         C16       1.0000    0.80590   0.01870   0.88820   Biso      1.000     C          0.678454  
         C17       1.0000    0.60300   0.87350   0.20240   Biso      1.000     C          -0.22156399999999998          
         C18       1.0000    0.48040   0.80290   0.19820   Biso      1.000     C          -0.095512           
         C19       1.0000    0.34060   0.85750   0.19400   Biso      1.000     C          -0.219685           
         C20       1.0000    0.30590   0.48130   0.38820   Biso      1.000     C          0.678454  
         C21       1.0000    0.00370   0.23460   0.22440   Biso      1.000     C          0.6446729999999999  
         C22       1.0000    0.78090   0.50890   0.37770   Biso      1.000     C          0.627322  
         C23       1.0000    0.90790   0.44320   0.37270   Biso      1.000     C          -0.07911  
         C24       1.0000    0.04670   0.49650   0.37720   Biso      1.000     C          -0.22609400000000002          
         C25       1.0000    0.16810   0.42730   0.38260   Biso      1.000     C          -0.11431199999999998          
         C26       1.0000    0.15940   0.35750   0.30600   Biso      1.000     C          -0.219685           
         C27       1.0000    0.01960   0.30290   0.30180   Biso      1.000     C          -0.095512           
         C28       1.0000    0.89700   0.37350   0.29760   Biso      1.000     C          -0.22156399999999998          
         C29       1.0000    0.19410   0.98130   0.11180   Biso      1.000     C          0.678454  
         C30       1.0000    0.49630   0.73460   0.27560   Biso      1.000     C          0.6446729999999999  
         C31       1.0000    0.71910   0.00890   0.12230   Biso      1.000     C          0.627322  
         C32       1.0000    0.59210   0.94320   0.12730   Biso      1.000     C          -0.07911  
         C33       1.0000    0.45330   0.99650   0.12280   Biso      1.000     C          -0.22609400000000002          
         C34       1.0000    0.33190   0.92730   0.11740   Biso      1.000     C          -0.11431199999999998          
         C35       1.0000    0.51960   0.19710   0.80180   Biso      1.000     C          -0.095512           
         C36       1.0000    0.39700   0.12650   0.79760   Biso      1.000     C          -0.22156399999999998          
         Dy1       1.0000    0.04247   0.88872   0.91421   Biso      1.000     Dy          2.0196110000000003  
         Dy2       1.0000    0.45753   0.38872   0.58579   Biso      1.000     Dy          2.0196110000000003  
         Dy3       1.0000    0.95753   0.11128   0.08579   Biso      1.000     Dy          2.0196110000000003  
         Dy4       1.0000    0.54247   0.61128   0.41421   Biso      1.000     Dy          2.0196110000000003  
         H1        1.0000    0.05210   0.53660   0.32580   Biso      1.000     H          0.122429  
         H2        1.0000    0.83170   0.60710   0.74800   Biso      1.000     H          0.12378   
         H3        1.0000    0.76420   0.68820   0.68780   Biso      1.000     H          0.113649  
         H4        1.0000    0.98460   0.73520   0.64470   Biso      1.000     H          0.100023  
         H5        1.0000    0.18970   0.66220   0.70100   Biso      1.000     H          0.12388699999999998           
         H6        1.0000    0.10450   0.59110   0.75690   Biso      1.000     H          0.114777  
         H7        1.0000    0.40940   0.09660   0.92550   Biso      1.000     H          0.090525  
         H8        1.0000    0.55220   0.96180   0.92810   Biso      1.000     H          0.106091  
         H9        1.0000    0.66270   0.11040   0.93630   Biso      1.000     H          0.083869  
         H10       1.0000    0.83730   0.61040   0.56370   Biso      1.000     H          0.083869  
         H11       1.0000    0.16270   0.38960   0.43630   Biso      1.000     H          0.083869  
         H12       1.0000    0.73580   0.18820   0.81220   Biso      1.000     H          0.113649  
         H13       1.0000    0.51540   0.23520   0.85530   Biso      1.000     H          0.100023  
         H14       1.0000    0.31030   0.16220   0.79900   Biso      1.000     H          0.12388699999999998           
         H15       1.0000    0.39550   0.09110   0.74310   Biso      1.000     H          0.114777  
         H16       1.0000    0.55210   0.96340   0.82580   Biso      1.000     H          0.122429  
         H17       1.0000    0.94790   0.46340   0.67420   Biso      1.000     H          0.122429  
         H18       1.0000    0.66830   0.10710   0.75200   Biso      1.000     H          0.12378   
         H19       1.0000    0.09060   0.59660   0.57450   Biso      1.000     H          0.090525  
         H20       1.0000    0.94780   0.46180   0.57190   Biso      1.000     H          0.106091  
         H21       1.0000    0.05220   0.53820   0.42810   Biso      1.000     H          0.106091  
         H22       1.0000    0.90940   0.40340   0.42550   Biso      1.000     H          0.090525  
         H23       1.0000    0.16830   0.39290   0.25200   Biso      1.000     H          0.12378   
         H24       1.0000    0.01540   0.26480   0.35530   Biso      1.000     H          0.100023  
         H25       1.0000    0.81030   0.33780   0.29900   Biso      1.000     H          0.12388699999999998           
         H26       1.0000    0.89550   0.40890   0.24310   Biso      1.000     H          0.114777  
         H27       1.0000    0.59060   0.90340   0.07450   Biso      1.000     H          0.090525  
         H28       1.0000    0.23580   0.31180   0.31220   Biso      1.000     H          0.113649  
         H29       1.0000    0.44790   0.03660   0.17420   Biso      1.000     H          0.122429  
         H30       1.0000    0.33730   0.88960   0.06370   Biso      1.000     H          0.083869  
         H31       1.0000    0.33170   0.89290   0.24800   Biso      1.000     H          0.12378   
         H32       1.0000    0.26420   0.81180   0.18780   Biso      1.000     H          0.113649  
         H33       1.0000    0.48460   0.76480   0.14470   Biso      1.000     H          0.100023  
         H34       1.0000    0.68970   0.83780   0.20100   Biso      1.000     H          0.12388699999999998           
         H35       1.0000    0.44780   0.03820   0.07190   Biso      1.000     H          0.106091  
         H36       1.0000    0.60450   0.90890   0.25690   Biso      1.000     H          0.114777  
         O1        1.0000    0.83910   0.97020   0.13530   Biso      1.000     O          -0.653558           
         O2        1.0000    0.10620   0.96250   0.04930   Biso      1.000     O          -0.802234           
         O3        1.0000    0.16740   0.04440   0.16520   Biso      1.000     O          -0.5809949999999999           
         O4        1.0000    0.57710   0.66380   0.26760   Biso      1.000     O          -0.650366           
         O5        1.0000    0.66090   0.47020   0.36470   Biso      1.000     O          -0.653558           
         O6        1.0000    0.79500   0.59450   0.39750   Biso      1.000     O          -0.6298090000000001           
         O7        1.0000    0.39380   0.46250   0.45070   Biso      1.000     O          -0.802234           
         O8        1.0000    0.70500   0.09450   0.10250   Biso      1.000     O          -0.6298090000000001           
         O9        1.0000    0.33260   0.54440   0.33480   Biso      1.000     O          -0.5809949999999999           
         O10       1.0000    0.43390   0.74790   0.34220   Biso      1.000     O          -0.6758529999999999           
         O11       1.0000    0.93390   0.75210   0.84220   Biso      1.000     O          -0.6758529999999999           
         O12       1.0000    0.89380   0.03750   0.95070   Biso      1.000     O          -0.802233           
         O13       1.0000    0.66740   0.45560   0.66520   Biso      1.000     O          -0.5809949999999999           
         O14       1.0000    0.60620   0.53750   0.54930   Biso      1.000     O          -0.802234           
         O15       1.0000    0.33910   0.52980   0.63530   Biso      1.000     O          -0.653558           
         O16       1.0000    0.20500   0.40550   0.60250   Biso      1.000     O          -0.6298090000000001           
         O17       1.0000    0.56610   0.25210   0.65780   Biso      1.000     O          -0.6758529999999999           
         O18       1.0000    0.42290   0.33620   0.73240   Biso      1.000     O          -0.650366           
         O19       1.0000    0.83260   0.95560   0.83480   Biso      1.000     O          -0.5809949999999999           
         O20       1.0000    0.16090   0.02980   0.86470   Biso      1.000     O          -0.653558           
         O21       1.0000    0.29500   0.90550   0.89750   Biso      1.000     O          -0.6298090000000001           
         O22       1.0000    0.92290   0.16380   0.23240   Biso      1.000     O          -0.650366           
         O23       1.0000    0.07710   0.83620   0.76760   Biso      1.000     O          -0.650366           
         O24       1.0000    0.06610   0.24790   0.15780   Biso      1.000     O          -0.6758529999999999 