
##########################################################################
#               Crystallographic Information Format file
#               Produced by PyCifRW module
#
#  This is a CIF file.  CIF has been adopted by the International
#  Union of Crystallography as the standard for data archiving and
#  transmission.
#
#  For information on this file format, follow the CIF links at
#  http://www.iucr.org
##########################################################################

data_image0

_cell_length_a                          9.5736
_cell_length_b                          13.8317
_cell_length_c                          15.3442
_cell_angle_alpha                       90
_cell_angle_beta                        93.436
_cell_angle_gamma                       90
_symmetry_space_group_name_H-M          'P 1'
_symmetry_int_tables_number             1
loop_
  _symmetry_equiv_pos_as_xyz
         'x, y, z' 
loop_
  _atom_site_label
  _atom_site_occupancy
  _atom_site_fract_x
  _atom_site_fract_y
  _atom_site_fract_z
  _atom_site_thermal_displace_type
  _atom_site_B_iso_or_equiv
  _atom_site_type_symbol
  _atom_site_charge
         C1        1.0000    0.34020   0.14230   0.69410   Biso      1.000     C          -0.220178           
         C2        1.0000    0.16910   0.57290   0.88150   Biso      1.000     C          -0.110946           
         C3        1.0000    0.04630   0.50390   0.87750   Biso      1.000     C          -0.222885           
         C4        1.0000    0.90790   0.55750   0.87290   Biso      1.000     C          -0.09037  
         C5        1.0000    0.89700   0.62700   0.79710   Biso      1.000     C          -0.21511  
         C6        1.0000    0.01880   0.69710   0.80030   Biso      1.000     C          -0.09549099999999999          
         C7        1.0000    0.30680   0.51840   0.88800   Biso      1.000     C          0.67866   
         C8        1.0000    0.78110   0.49140   0.87750   Biso      1.000     C          0.629289  
         C9        1.0000    0.00320   0.76530   0.72480   Biso      1.000     C          0.650171  
         C10       1.0000    0.51880   0.80290   0.30030   Biso      1.000     C          -0.095492           
         C11       1.0000    0.33090   0.07290   0.61850   Biso      1.000     C          -0.110945           
         C12       1.0000    0.45370   0.00390   0.62250   Biso      1.000     C          -0.222886           
         C13       1.0000    0.59210   0.05750   0.62710   Biso      1.000     C          -0.09037  
         C14       1.0000    0.60300   0.12700   0.70290   Biso      1.000     C          -0.21511  
         C15       1.0000    0.48120   0.19710   0.69970   Biso      1.000     C          -0.09549099999999999          
         C16       1.0000    0.19320   0.01840   0.61200   Biso      1.000     C          0.67866   
         C17       1.0000    0.71890   0.99140   0.62250   Biso      1.000     C          0.629289  
         C18       1.0000    0.49680   0.26530   0.77520   Biso      1.000     C          0.650171  
         C19       1.0000    0.84020   0.35770   0.19410   Biso      1.000     C          -0.220177           
         C20       1.0000    0.83090   0.42710   0.11850   Biso      1.000     C          -0.110945           
         C21       1.0000    0.95370   0.49610   0.12250   Biso      1.000     C          -0.222885           
         C22       1.0000    0.09210   0.44250   0.12710   Biso      1.000     C          -0.09037  
         C23       1.0000    0.10300   0.37300   0.20290   Biso      1.000     C          -0.21511  
         C24       1.0000    0.98120   0.30290   0.19970   Biso      1.000     C          -0.09549099999999999          
         C25       1.0000    0.69320   0.48160   0.11200   Biso      1.000     C          0.67866   
         C26       1.0000    0.21890   0.50860   0.12250   Biso      1.000     C          0.629289  
         C27       1.0000    0.99680   0.23470   0.27520   Biso      1.000     C          0.650171  
         C28       1.0000    0.65980   0.85770   0.30590   Biso      1.000     C          -0.220177           
         C29       1.0000    0.66910   0.92710   0.38150   Biso      1.000     C          -0.110946           
         C30       1.0000    0.54630   0.99610   0.37750   Biso      1.000     C          -0.222885           
         C31       1.0000    0.15980   0.64230   0.80590   Biso      1.000     C          -0.220178           
         C32       1.0000    0.40790   0.94250   0.37290   Biso      1.000     C          -0.09037  
         C33       1.0000    0.39700   0.87300   0.29710   Biso      1.000     C          -0.21511  
         C34       1.0000    0.50320   0.73470   0.22480   Biso      1.000     C          0.650171  
         C35       1.0000    0.28110   0.00860   0.37750   Biso      1.000     C          0.629289  
         C36       1.0000    0.80680   0.98160   0.38800   Biso      1.000     C          0.67866   
         H1        1.0000    0.66420   0.88890   0.43500   Biso      1.000     H          0.08301499999999999           
         H2        1.0000    0.44920   0.96280   0.67350   Biso      1.000     H          0.122295  
         H3        1.0000    0.33580   0.11110   0.56500   Biso      1.000     H          0.08301499999999999           
         H4        1.0000    0.33020   0.10690   0.74790   Biso      1.000     H          0.123287  
         H5        1.0000    0.26410   0.18850   0.68760   Biso      1.000     H          0.114277  
         H6        1.0000    0.01430   0.73530   0.85380   Biso      1.000     H          0.100409  
         H7        1.0000    0.81010   0.66290   0.79830   Biso      1.000     H          0.123451  
         H8        1.0000    0.90910   0.59770   0.92560   Biso      1.000     H          0.094349  
         H9        1.0000    0.44800   0.96280   0.57120   Biso      1.000     H          0.106495  
         H10       1.0000    0.05200   0.46280   0.92880   Biso      1.000     H          0.106495  
         H11       1.0000    0.05080   0.46280   0.82650   Biso      1.000     H          0.122295  
         H12       1.0000    0.16420   0.61110   0.93500   Biso      1.000     H          0.08301499999999999           
         H13       1.0000    0.16980   0.60690   0.75210   Biso      1.000     H          0.123287  
         H14       1.0000    0.23590   0.68850   0.81240   Biso      1.000     H          0.114277  
         H15       1.0000    0.89520   0.59090   0.74280   Biso      1.000     H          0.11443800000000001           
         H16       1.0000    0.66980   0.89310   0.25210   Biso      1.000     H          0.123287  
         H17       1.0000    0.59090   0.09770   0.57440   Biso      1.000     H          0.094348  
         H18       1.0000    0.68990   0.16290   0.70170   Biso      1.000     H          0.123451  
         H19       1.0000    0.55080   0.03720   0.32650   Biso      1.000     H          0.122295  
         H20       1.0000    0.73590   0.81150   0.31240   Biso      1.000     H          0.114276  
         H21       1.0000    0.40910   0.90230   0.42560   Biso      1.000     H          0.094348  
         H22       1.0000    0.39520   0.90910   0.24280   Biso      1.000     H          0.11443699999999998           
         H23       1.0000    0.31010   0.83710   0.29830   Biso      1.000     H          0.123451  
         H24       1.0000    0.51430   0.76470   0.35380   Biso      1.000     H          0.100409  
         H25       1.0000    0.98570   0.26470   0.14620   Biso      1.000     H          0.100409  
         H26       1.0000    0.60480   0.09090   0.75720   Biso      1.000     H          0.11443800000000001           
         H27       1.0000    0.18990   0.33710   0.20170   Biso      1.000     H          0.123451  
         H28       1.0000    0.09090   0.40230   0.07440   Biso      1.000     H          0.094348  
         H29       1.0000    0.94800   0.53720   0.07120   Biso      1.000     H          0.106495  
         H30       1.0000    0.94920   0.53720   0.17350   Biso      1.000     H          0.122295  
         H31       1.0000    0.83580   0.38890   0.06500   Biso      1.000     H          0.08301499999999999           
         H32       1.0000    0.83020   0.39310   0.24790   Biso      1.000     H          0.123287  
         H33       1.0000    0.76410   0.31150   0.18760   Biso      1.000     H          0.114276  
         H34       1.0000    0.48570   0.23530   0.64620   Biso      1.000     H          0.100409  
         H35       1.0000    0.10480   0.40910   0.25720   Biso      1.000     H          0.11443800000000001           
         H36       1.0000    0.55200   0.03720   0.42880   Biso      1.000     H          0.106495  
         Ho1       1.0000    0.54270   0.38866   0.91439   Biso      1.000     Ho          2.024921  
         Ho2       1.0000    0.04270   0.11134   0.41439   Biso      1.000     Ho          2.024921  
         Ho3       1.0000    0.45730   0.61134   0.08561   Biso      1.000     Ho          2.024921  
         Ho4       1.0000    0.95730   0.88866   0.58561   Biso      1.000     Ho          2.024921  
         O1        1.0000    0.29440   0.09470   0.39890   Biso      1.000     O          -0.632476           
         O2        1.0000    0.16000   0.96980   0.36520   Biso      1.000     O          -0.653936           
         O3        1.0000    0.83450   0.04490   0.33510   Biso      1.000     O          -0.578874           
         O4        1.0000    0.89440   0.96280   0.45150   Biso      1.000     O          -0.805376           
         O5        1.0000    0.93490   0.24890   0.34280   Biso      1.000     O          -0.685847           
         O6        1.0000    0.07830   0.16330   0.26960   Biso      1.000     O          -0.653565           
         O7        1.0000    0.20560   0.59470   0.10110   Biso      1.000     O          -0.632476           
         O8        1.0000    0.34000   0.46980   0.13480   Biso      1.000     O          -0.653937           
         O9        1.0000    0.66550   0.54490   0.16490   Biso      1.000     O          -0.578874           
         O10       1.0000    0.60560   0.46280   0.04850   Biso      1.000     O          -0.805376           
         O11       1.0000    0.43490   0.25110   0.84280   Biso      1.000     O          -0.685847           
         O12       1.0000    0.57830   0.33670   0.76960   Biso      1.000     O          -0.653566           
         O13       1.0000    0.70560   0.90530   0.60110   Biso      1.000     O          -0.632476           
         O14       1.0000    0.84000   0.03020   0.63480   Biso      1.000     O          -0.653936           
         O15       1.0000    0.16550   0.95510   0.66490   Biso      1.000     O          -0.578874           
         O16       1.0000    0.10560   0.03720   0.54850   Biso      1.000     O          -0.805376           
         O17       1.0000    0.06510   0.75110   0.65720   Biso      1.000     O          -0.685847           
         O18       1.0000    0.92170   0.83670   0.73040   Biso      1.000     O          -0.653566           
         O19       1.0000    0.79440   0.40530   0.89890   Biso      1.000     O          -0.632476           
         O20       1.0000    0.66000   0.53020   0.86520   Biso      1.000     O          -0.653937           
         O21       1.0000    0.33450   0.45510   0.83510   Biso      1.000     O          -0.578874           
         O22       1.0000    0.39440   0.53720   0.95150   Biso      1.000     O          -0.805376           
         O23       1.0000    0.42170   0.66330   0.23040   Biso      1.000     O          -0.653566           
         O24       1.0000    0.56510   0.74890   0.15720   Biso      1.000     O          -0.685847 