
##########################################################################
#               Crystallographic Information Format file
#               Produced by PyCifRW module
#
#  This is a CIF file.  CIF has been adopted by the International
#  Union of Crystallography as the standard for data archiving and
#  transmission.
#
#  For information on this file format, follow the CIF links at
#  http://www.iucr.org
##########################################################################

data_image0

_cell_length_a                          9.7554
_cell_length_b                          13.243
_cell_length_c                          13.5956
_cell_angle_alpha                       118.303
_cell_angle_beta                        90
_cell_angle_gamma                       111.612
_symmetry_space_group_name_H-M          'P 1'
_symmetry_int_tables_number             1
loop_
  _symmetry_equiv_pos_as_xyz
         'x, y, z' 
loop_
  _atom_site_label
  _atom_site_occupancy
  _atom_site_fract_x
  _atom_site_fract_y
  _atom_site_fract_z
  _atom_site_thermal_displace_type
  _atom_site_B_iso_or_equiv
  _atom_site_type_symbol
  _atom_site_charge
         C1        1.0000    0.66820   0.72020   0.49680   Biso      1.000     C          0.09324   
         C2        1.0000    0.60880   0.92720   0.60400   Biso      1.000     C          -0.168528           
         C3        1.0000    0.75780   0.94700   0.60440   Biso      1.000     C          0.08718200000000001           
         C4        1.0000    0.78790   0.84000   0.54990   Biso      1.000     C          -0.195651           
         C5        1.0000    0.14610   0.21420   0.71770   Biso      1.000     C          0.10861400000000002           
         C6        1.0000    0.03460   0.09300   0.66650   Biso      1.000     C          -0.188344           
         C7        1.0000    0.88330   0.07620   0.65990   Biso      1.000     C          0.101118  
         C8        1.0000    0.85610   0.18440   0.70210   Biso      1.000     C          -0.167285           
         C9        1.0000    0.49460   0.80420   0.54930   Biso      1.000     C          0.13668   
         C10       1.0000    0.97490   0.30180   0.75330   Biso      1.000     C          0.095362  
         C11       1.0000    0.15810   0.21080   0.23150   Biso      1.000     C          0.10051399999999999           
         C12       1.0000    0.99040   0.30040   0.26700   Biso      1.000     C          0.11725899999999999           
         C13       1.0000    0.86930   0.18320   0.21010   Biso      1.000     C          -0.17873599999999998          
         C14       1.0000    0.89260   0.07480   0.16110   Biso      1.000     C          0.08467000000000001           
         C15       1.0000    0.66620   0.71840   0.98750   Biso      1.000     C          0.101384  
         C16       1.0000    0.50320   0.81240   0.01460   Biso      1.000     C          0.105581  
         C17       1.0000    0.61940   0.93100   0.07930   Biso      1.000     C          -0.16795  
         C18       1.0000    0.04400   0.09040   0.17110   Biso      1.000     C          -0.192994           
         C19       1.0000    0.69080   0.18760   0.98540   Biso      1.000     C          0.105472  
         C20       1.0000    0.68840   0.06900   0.92070   Biso      1.000     C          -0.16611199999999998          
         C21       1.0000    0.81970   0.05480   0.90170   Biso      1.000     C          0.10424800000000001           
         C22       1.0000    0.69040   0.19580   0.45070   Biso      1.000     C          0.134547  
         C23       1.0000    0.68160   0.07280   0.39600   Biso      1.000     C          -0.167686           
         C24       1.0000    0.81080   0.05300   0.39560   Biso      1.000     C          0.087639  
         C25       1.0000    0.94790   0.16000   0.45010   Biso      1.000     C          -0.195125           
         C26       1.0000    0.94800   0.27980   0.50320   Biso      1.000     C          0.093398  
         C27       1.0000    0.93190   0.78580   0.28230   Biso      1.000     C          0.108571  
         C28       1.0000    0.94160   0.90700   0.33350   Biso      1.000     C          -0.18667899999999998          
         C29       1.0000    0.80710   0.92380   0.34010   Biso      1.000     C          0.097413  
         C30       1.0000    0.67170   0.81560   0.29790   Biso      1.000     C          -0.16617200000000001          
         C31       1.0000    0.67310   0.69820   0.24670   Biso      1.000     C          0.094015  
         C32       1.0000    0.95360   0.90960   0.82890   Biso      1.000     C          -0.19376500000000002          
         C33       1.0000    0.94730   0.78920   0.76850   Biso      1.000     C          0.098524  
         C34       1.0000    0.69000   0.69960   0.73300   Biso      1.000     C          0.11694500000000001           
         C35       1.0000    0.68610   0.81680   0.78990   Biso      1.000     C          -0.177137           
         C36       1.0000    0.81780   0.92520   0.83890   Biso      1.000     C          0.086634  
         C37       1.0000    0.94780   0.28160   0.01250   Biso      1.000     C          0.101132  
         C38       1.0000    0.95390   0.16320   0.95040   Biso      1.000     C          -0.183272           
         C39       1.0000    0.76490   0.94520   0.09830   Biso      1.000     C          0.106093  
         C40       1.0000    0.79070   0.83680   0.04960   Biso      1.000     C          -0.18287  
         Cd1       1.0000    0.32318   0.51296   0.85645   Biso      1.000     Cd          0.961418  
         Cd2       1.0000    0.81897   0.49182   0.60272   Biso      1.000     Cd          0.997301  
         Cd3       1.0000    0.81022   0.48704   0.14355   Biso      1.000     Cd          0.9608030000000001  
         Cd4       1.0000    0.32715   0.50818   0.39728   Biso      1.000     Cd          0.9968389999999999  
         H1        1.0000    0.58630   0.00320   0.35970   Biso      1.000     H          0.14243499999999998           
         H2        1.0000    0.24780   0.22400   0.72150   Biso      1.000     H          0.10631700000000001           
         H3        1.0000    0.05890   0.02220   0.63580   Biso      1.000     H          0.141525  
         H4        1.0000    0.75570   0.17760   0.69510   Biso      1.000     H          0.145398  
         H5        1.0000    0.95340   0.37400   0.78500   Biso      1.000     H          0.114078  
         H6        1.0000    0.06620   0.01820   0.13680   Biso      1.000     H          0.130629  
         H7        1.0000    0.25960   0.22000   0.23920   Biso      1.000     H          0.106804  
         H8        1.0000    0.77000   0.17720   0.20530   Biso      1.000     H          0.134207  
         H9        1.0000    0.69010   0.64840   0.45990   Biso      1.000     H          0.099606  
         H10       1.0000    0.68260   0.64400   0.95720   Biso      1.000     H          0.11103800000000001           
         H11       1.0000    0.89070   0.84120   0.05920   Biso      1.000     H          0.134072  
         H12       1.0000    0.59660   0.00220   0.11170   Biso      1.000     H          0.142902  
         H13       1.0000    0.59990   0.20720   0.45010   Biso      1.000     H          0.119992  
         H14       1.0000    0.97080   0.37360   0.29750   Biso      1.000     H          0.11280899999999999           
         H15       1.0000    0.88970   0.84860   0.54820   Biso      1.000     H          0.130454  
         H16       1.0000    0.40400   0.80600   0.00290   Biso      1.000     H          0.105898  
         H17       1.0000    0.39270   0.79280   0.54990   Biso      1.000     H          0.118907  
         H18       1.0000    0.04110   0.15140   0.45180   Biso      1.000     H          0.129937  
         H19       1.0000    0.04170   0.35160   0.54010   Biso      1.000     H          0.099224  
         H20       1.0000    0.02380   0.77600   0.27850   Biso      1.000     H          0.106143  
         H21       1.0000    0.03670   0.97780   0.36420   Biso      1.000     H          0.14188699999999999           
         H22       1.0000    0.57810   0.82240   0.30490   Biso      1.000     H          0.145293  
         H23       1.0000    0.04800   0.98180   0.86320   Biso      1.000     H          0.131692  
         H24       1.0000    0.03960   0.78000   0.76080   Biso      1.000     H          0.107957  
         H25       1.0000    0.57940   0.62600   0.21500   Biso      1.000     H          0.11510699999999999           
         H26       1.0000    0.59280   0.82280   0.79470   Biso      1.000     H          0.13181400000000001           
         H27       1.0000    0.03860   0.35600   0.04280   Biso      1.000     H          0.11026099999999998           
         H28       1.0000    0.04950   0.15880   0.94080   Biso      1.000     H          0.13503900000000002           
         H29       1.0000    0.59440   0.99780   0.88830   Biso      1.000     H          0.143157  
         H30       1.0000    0.59800   0.19400   0.99710   Biso      1.000     H          0.103697  
         H31       1.0000    0.59720   0.62640   0.70250   Biso      1.000     H          0.11253099999999999           
         H32       1.0000    0.58310   0.99680   0.64030   Biso      1.000     H          0.141872  
         N1        1.0000    0.82270   0.29860   0.50450   Biso      1.000     N          -0.216613           
         N2        1.0000    0.12210   0.31900   0.76190   Biso      1.000     N          -0.23681799999999997          
         N3        1.0000    0.80310   0.68100   0.23810   Biso      1.000     N          -0.23638  
         N4        1.0000    0.81810   0.68460   0.71980   Biso      1.000     N          -0.21566799999999997          
         N5        1.0000    0.81820   0.29320   0.03120   Biso      1.000     N          -0.224475           
         N6        1.0000    0.52410   0.70140   0.49550   Biso      1.000     N          -0.21692899999999998          
         N7        1.0000    0.13350   0.31540   0.28020   Biso      1.000     N          -0.215773           
         N8        1.0000    0.52500   0.70680   0.96880   Biso      1.000     N          -0.226611           
         O1        1.0000    0.50890   0.23460   0.67080   Biso      1.000     O          -0.724002           
         O2        1.0000    0.27430   0.76540   0.32920   Biso      1.000     O          -0.724996           
         O3        1.0000    0.17280   0.59900   0.36850   Biso      1.000     O          -0.722234           
         O4        1.0000    0.62570   0.41440   0.43110   Biso      1.000     O          -0.690487           
         O5        1.0000    0.49420   0.42680   0.29000   Biso      1.000     O          -0.7314229999999999           
         O6        1.0000    0.55480   0.24840   0.23380   Biso      1.000     O          -0.7080310000000001           
         O7        1.0000    0.75350   0.45520   0.29490   Biso      1.000     O          -0.700199           
         O8        1.0000    0.49530   0.42800   0.80540   Biso      1.000     O          -0.737433           
         O9        1.0000    0.73570   0.42920   0.77620   Biso      1.000     O          -0.753674           
         O10       1.0000    0.06730   0.57200   0.19460   Biso      1.000     O          -0.7372529999999999           
         O11       1.0000    0.21130   0.58560   0.56890   Biso      1.000     O          -0.6902020000000001           
         O12       1.0000    0.06740   0.57320   0.71000   Biso      1.000     O          -0.73127  
         O13       1.0000    0.30640   0.75160   0.76620   Biso      1.000     O          -0.708359           
         O14       1.0000    0.29830   0.54480   0.70510   Biso      1.000     O          -0.698984           
         O15       1.0000    0.30650   0.57080   0.22380   Biso      1.000     O          -0.754926           
         O16       1.0000    0.57380   0.40100   0.63150   Biso      1.000     O          -0.721128           
         S1        1.0000    0.22268   0.61696   0.68840   Biso      1.000     S          1.4466139999999998  
         S2        1.0000    0.57714   0.37088   0.72320   Biso      1.000     S          1.4844979999999999  
         S3        1.0000    0.60572   0.38304   0.31160   Biso      1.000     S          1.447814  
         S4        1.0000    0.20626   0.62912   0.27680   Biso      1.000     S          1.487968 