
##########################################################################
#               Crystallographic Information Format file
#               Produced by PyCifRW module
#
#  This is a CIF file.  CIF has been adopted by the International
#  Union of Crystallography as the standard for data archiving and
#  transmission.
#
#  For information on this file format, follow the CIF links at
#  http://www.iucr.org
##########################################################################

data_image0

_cell_length_a                          7.3329
_cell_length_b                          14.372
_cell_length_c                          18.07
_cell_angle_alpha                       90
_cell_angle_beta                        90.869
_cell_angle_gamma                       90
_symmetry_space_group_name_H-M          'P 1'
_symmetry_int_tables_number             1
loop_
  _symmetry_equiv_pos_as_xyz
         'x, y, z' 
loop_
  _atom_site_label
  _atom_site_occupancy
  _atom_site_fract_x
  _atom_site_fract_y
  _atom_site_fract_z
  _atom_site_thermal_displace_type
  _atom_site_B_iso_or_equiv
  _atom_site_type_symbol
  _atom_site_charge
         C1        1.0000    0.30940   0.21234   0.27848   Biso      1.000     C          0.09016   
         C2        1.0000    0.19060   0.71234   0.22152   Biso      1.000     C          0.09018999999999999           
         C3        1.0000    0.03640   0.57581   0.28277   Biso      1.000     C          0.052035000000000005          
         C4        1.0000    0.78180   0.97655   0.88149   Biso      1.000     C          0.078692  
         C5        1.0000    0.53900   0.84983   0.91799   Biso      1.000     C          0.081182  
         C6        1.0000    0.90740   0.81606   0.93313   Biso      1.000     C          0.028924000000000002          
         C7        1.0000    0.58910   0.71209   0.84505   Biso      1.000     C          0.039823000000000004          
         C8        1.0000    0.95290   0.73423   0.81274   Biso      1.000     C          0.075711  
         C9        1.0000    0.93490   0.91302   0.76537   Biso      1.000     C          0.034485  
         C10       1.0000    0.69060   0.78766   0.72152   Biso      1.000     C          0.08995800000000001           
         C11       1.0000    0.53640   0.92419   0.78277   Biso      1.000     C          0.052078  
         C12       1.0000    0.71820   0.47655   0.61851   Biso      1.000     C          0.078498  
         C13       1.0000    0.96100   0.34983   0.58201   Biso      1.000     C          0.081194  
         C14       1.0000    0.59260   0.31606   0.56687   Biso      1.000     C          0.028964  
         C15       1.0000    0.91090   0.21209   0.65495   Biso      1.000     C          0.039664  
         C16       1.0000    0.54710   0.23423   0.68726   Biso      1.000     C          0.075543  
         C17       1.0000    0.56510   0.41302   0.73463   Biso      1.000     C          0.034633  
         C18       1.0000    0.80940   0.28766   0.77848   Biso      1.000     C          0.09012   
         C19       1.0000    0.96360   0.42419   0.71723   Biso      1.000     C          0.052226  
         C20       1.0000    0.08910   0.78791   0.34505   Biso      1.000     C          0.039713  
         C21       1.0000    0.40740   0.68394   0.43313   Biso      1.000     C          0.028899  
         C22       1.0000    0.03900   0.65017   0.41799   Biso      1.000     C          0.081062  
         C23       1.0000    0.28180   0.52345   0.38149   Biso      1.000     C          0.07874500000000001           
         C24       1.0000    0.46360   0.07581   0.21723   Biso      1.000     C          0.052070000000000005          
         C25       1.0000    0.06510   0.08698   0.23463   Biso      1.000     C          0.034481  
         C26       1.0000    0.04710   0.26577   0.18726   Biso      1.000     C          0.075514  
         C27       1.0000    0.41090   0.28791   0.15495   Biso      1.000     C          0.039625  
         C28       1.0000    0.09260   0.18394   0.06687   Biso      1.000     C          0.028979  
         C29       1.0000    0.46100   0.15017   0.08201   Biso      1.000     C          0.081224  
         C30       1.0000    0.21820   0.02345   0.11851   Biso      1.000     C          0.078692  
         C31       1.0000    0.43490   0.58698   0.26537   Biso      1.000     C          0.034441  
         C32       1.0000    0.45290   0.76577   0.31274   Biso      1.000     C          0.07557   
         Mn1       1.0000    0.27072   0.56515   0.79612   Biso      1.000     Mn          1.0620290000000001  
         Mn2       1.0000    0.74986   0.69498   0.55465   Biso      1.000     Mn          1.0112290000000002  
         Mn3       1.0000    0.75014   0.19498   0.94535   Biso      1.000     Mn          1.0121440000000002  
         Mn4       1.0000    0.25014   0.30502   0.44535   Biso      1.000     Mn          1.012068  
         Mn5       1.0000    0.22928   0.06515   0.70388   Biso      1.000     Mn          1.061007  
         Mn6       1.0000    0.77072   0.93485   0.29612   Biso      1.000     Mn          1.0611190000000001  
         Mn7       1.0000    0.24986   0.80502   0.05465   Biso      1.000     Mn          1.012094  
         Mn8       1.0000    0.72928   0.43485   0.20388   Biso      1.000     Mn          1.060868  
         Mo1       1.0000    0.25624   0.16157   0.16654   Biso      1.000     Mo          0.49385100000000004           
         Mo2       1.0000    0.24376   0.66157   0.33347   Biso      1.000     Mo          0.49379799999999996           
         Mo3       1.0000    0.75624   0.33843   0.66654   Biso      1.000     Mo          0.49384300000000003           
         Mo4       1.0000    0.74376   0.83843   0.83346   Biso      1.000     Mo          0.49383299999999997           
         N1        1.0000    0.16700   0.74100   0.16242   Biso      1.000     N          -0.38814099999999996          
         N2        1.0000    0.52600   0.54644   0.22576   Biso      1.000     N          -0.38756999999999997          
         N3        1.0000    0.56370   0.82060   0.30346   Biso      1.000     N          -0.38549  
         N4        1.0000    0.99560   0.85236   0.34807   Biso      1.000     N          -0.402796           
         N5        1.0000    0.49600   0.69406   0.48562   Biso      1.000     N          -0.374535           
         N6        1.0000    0.92600   0.64878   0.46216   Biso      1.000     N          -0.373475           
         N7        1.0000    0.93630   0.32060   0.19654   Biso      1.000     N          -0.385417           
         N8        1.0000    0.56850   0.02493   0.24214   Biso      1.000     N          -0.38247  
         N9        1.0000    0.33300   0.24100   0.33758   Biso      1.000     N          -0.388027           
         N10       1.0000    0.97400   0.04644   0.27424   Biso      1.000     N          -0.387525           
         N11       1.0000    0.93150   0.52493   0.25786   Biso      1.000     N          -0.38248499999999996          
         N12       1.0000    0.50440   0.35236   0.15193   Biso      1.000     N          -0.40274  
         N13       1.0000    0.00400   0.19406   0.01438   Biso      1.000     N          -0.374634           
         N14       1.0000    0.29470   0.44974   0.40615   Biso      1.000     N          -0.353408           
         N15       1.0000    0.79470   0.05026   0.90615   Biso      1.000     N          -0.35332199999999997          
         N16       1.0000    0.02600   0.95356   0.72576   Biso      1.000     N          -0.387496           
         N17       1.0000    0.99600   0.80594   0.98562   Biso      1.000     N          -0.374515           
         N18       1.0000    0.49560   0.64764   0.84807   Biso      1.000     N          -0.402893           
         N19       1.0000    0.06370   0.67940   0.80346   Biso      1.000     N          -0.385594           
         N20       1.0000    0.66700   0.75900   0.66242   Biso      1.000     N          -0.387841           
         N21       1.0000    0.43150   0.97507   0.75786   Biso      1.000     N          -0.382471           
         N22       1.0000    0.70530   0.55026   0.59385   Biso      1.000     N          -0.353145           
         N23       1.0000    0.07400   0.35122   0.53784   Biso      1.000     N          -0.37349299999999996          
         N24       1.0000    0.50400   0.30594   0.51438   Biso      1.000     N          -0.374488           
         N25       1.0000    0.00440   0.14764   0.65193   Biso      1.000     N          -0.402712           
         N26       1.0000    0.43630   0.17940   0.69654   Biso      1.000     N          -0.385438           
         N27       1.0000    0.47400   0.45356   0.77424   Biso      1.000     N          -0.387696           
         N28       1.0000    0.83300   0.25900   0.83758   Biso      1.000     N          -0.388038           
         N29       1.0000    0.06850   0.47507   0.74214   Biso      1.000     N          -0.382627           
         N30       1.0000    0.57400   0.14878   0.03784   Biso      1.000     N          -0.373612           
         N31       1.0000    0.42600   0.85122   0.96216   Biso      1.000     N          -0.37353800000000004          
         N32       1.0000    0.20530   0.94974   0.09385   Biso      1.000     N          -0.35334899999999997 