
##########################################################################
#               Crystallographic Information Format file
#               Produced by PyCifRW module
#
#  This is a CIF file.  CIF has been adopted by the International
#  Union of Crystallography as the standard for data archiving and
#  transmission.
#
#  For information on this file format, follow the CIF links at
#  http://www.iucr.org
##########################################################################

data_image0

_cell_length_a                          9.9998
_cell_length_b                          17.664
_cell_length_c                          27.294
_cell_angle_alpha                       90
_cell_angle_beta                        90
_cell_angle_gamma                       100.51
_symmetry_space_group_name_H-M          'P 1'
_symmetry_int_tables_number             1
loop_
  _symmetry_equiv_pos_as_xyz
         'x, y, z' 
loop_
  _atom_site_label
  _atom_site_occupancy
  _atom_site_fract_x
  _atom_site_fract_y
  _atom_site_fract_z
  _atom_site_thermal_displace_type
  _atom_site_B_iso_or_equiv
  _atom_site_type_symbol
  _atom_site_charge
         C1        1.0000    0.06620   0.60800   0.41420   Biso      1.000     C          0.104167  
         C2        1.0000    0.55310   0.47620   0.00480   Biso      1.000     C          0.102133  
         C3        1.0000    0.53830   0.40050   0.99060   Biso      1.000     C          -0.17575  
         C4        1.0000    0.63950   0.35870   0.00060   Biso      1.000     C          0.099307  
         C5        1.0000    0.71190   0.65290   0.27500   Biso      1.000     C          0.087093  
         C6        1.0000    0.63200   0.60890   0.24070   Biso      1.000     C          -0.187963           
         C7        1.0000    0.68570   0.55910   0.21090   Biso      1.000     C          0.10775   
         C8        1.0000    0.82390   0.55680   0.21640   Biso      1.000     C          -0.190563           
         C9        1.0000    0.89690   0.60290   0.25140   Biso      1.000     C          0.07433   
         C10       1.0000    0.59710   0.50760   0.17600   Biso      1.000     C          0.098602  
         C11       1.0000    0.61760   0.43470   0.16450   Biso      1.000     C          -0.185413           
         C12       1.0000    0.67290   0.50720   0.02890   Biso      1.000     C          -0.172031           
         C13       1.0000    0.52450   0.38680   0.13530   Biso      1.000     C          0.098053  
         C14       1.0000    0.48520   0.53130   0.15420   Biso      1.000     C          -0.199446           
         C15       1.0000    0.80350   0.16600   0.00130   Biso      1.000     C          0.088768  
         C16       1.0000    0.82130   0.09960   0.97580   Biso      1.000     C          -0.180171           
         C17       1.0000    0.94660   0.09680   0.95420   Biso      1.000     C          0.098607  
         C18       1.0000    0.04510   0.16350   0.95760   Biso      1.000     C          -0.182783           
         C19       1.0000    0.01830   0.22660   0.98270   Biso      1.000     C          0.084674  
         C20       1.0000    0.97470   0.02760   0.92900   Biso      1.000     C          0.104998  
         C21       1.0000    0.90150   0.95540   0.93870   Biso      1.000     C          -0.177799           
         C22       1.0000    0.93380   0.89200   0.91420   Biso      1.000     C          0.104166  
         C23       1.0000    0.10240   0.96770   0.87120   Biso      1.000     C          0.064837  
         C24       1.0000    0.39800   0.48020   0.12570   Biso      1.000     C          0.07627   
         C25       1.0000    0.08000   0.03250   0.89500   Biso      1.000     C          -0.182889           
         C26       1.0000    0.76910   0.46020   0.03750   Biso      1.000     C          0.085599  
         C27       1.0000    0.92000   0.46750   0.39500   Biso      1.000     C          -0.182896           
         C28       1.0000    0.36050   0.14130   0.50060   Biso      1.000     C          0.099305  
         C29       1.0000    0.46170   0.09950   0.49060   Biso      1.000     C          -0.175753           
         C30       1.0000    0.44690   0.02380   0.50480   Biso      1.000     C          0.102137  
         C31       1.0000    0.32710   0.99280   0.52890   Biso      1.000     C          -0.172031           
         C32       1.0000    0.23090   0.03980   0.53750   Biso      1.000     C          0.085599  
         C33       1.0000    0.63690   0.28320   0.52030   Biso      1.000     C          0.297652  
         C34       1.0000    0.31430   0.94090   0.71090   Biso      1.000     C          0.107745  
         C35       1.0000    0.17610   0.94320   0.71640   Biso      1.000     C          -0.190562           
         C36       1.0000    0.10310   0.89710   0.75140   Biso      1.000     C          0.07433   
         C37       1.0000    0.40290   0.99240   0.67600   Biso      1.000     C          0.098602  
         C38       1.0000    0.36310   0.21680   0.02030   Biso      1.000     C          0.297652  
         C39       1.0000    0.38240   0.06530   0.66450   Biso      1.000     C          -0.185413           
         C40       1.0000    0.60200   0.01980   0.62570   Biso      1.000     C          0.076262  
         C41       1.0000    0.51480   0.96870   0.65420   Biso      1.000     C          -0.199438           
         C42       1.0000    0.19650   0.33400   0.50130   Biso      1.000     C          0.088769  
         C43       1.0000    0.17870   0.40040   0.47580   Biso      1.000     C          -0.18017  
         C44       1.0000    0.05340   0.40320   0.45420   Biso      1.000     C          0.098607  
         C45       1.0000    0.95490   0.33650   0.45760   Biso      1.000     C          -0.182782           
         C46       1.0000    0.98170   0.27340   0.48270   Biso      1.000     C          0.084674  
         C47       1.0000    0.02530   0.47240   0.42900   Biso      1.000     C          0.104998  
         C48       1.0000    0.09850   0.54460   0.43870   Biso      1.000     C          -0.177798           
         C49       1.0000    0.89760   0.53230   0.37120   Biso      1.000     C          0.064847  
         C50       1.0000    0.47550   0.11320   0.63530   Biso      1.000     C          0.098054  
         C51       1.0000    0.36310   0.71680   0.47970   Biso      1.000     C          0.297652  
         C52       1.0000    0.76910   0.96020   0.46250   Biso      1.000     C          0.085599  
         C53       1.0000    0.67290   0.00720   0.47110   Biso      1.000     C          -0.172033           
         C54       1.0000    0.46170   0.59950   0.00940   Biso      1.000     C          -0.175754           
         C55       1.0000    0.36050   0.64130   0.99940   Biso      1.000     C          0.099308  
         C56       1.0000    0.28810   0.34710   0.72500   Biso      1.000     C          0.087093  
         C57       1.0000    0.36800   0.39110   0.75930   Biso      1.000     C          -0.187963           
         C58       1.0000    0.31430   0.44090   0.78910   Biso      1.000     C          0.107751  
         C59       1.0000    0.17610   0.44320   0.78360   Biso      1.000     C          -0.190562           
         C60       1.0000    0.10310   0.39710   0.74860   Biso      1.000     C          0.07433   
         C61       1.0000    0.40290   0.49240   0.82400   Biso      1.000     C          0.098601  
         C62       1.0000    0.38240   0.56530   0.83550   Biso      1.000     C          -0.185413           
         C63       1.0000    0.47550   0.61320   0.86470   Biso      1.000     C          0.098053  
         C64       1.0000    0.44690   0.52380   0.99520   Biso      1.000     C          0.102138  
         C65       1.0000    0.60200   0.51980   0.87430   Biso      1.000     C          0.076263  
         C66       1.0000    0.19650   0.83400   0.99870   Biso      1.000     C          0.088768  
         C67       1.0000    0.17870   0.90040   0.02420   Biso      1.000     C          -0.18017  
         C68       1.0000    0.05340   0.90320   0.04580   Biso      1.000     C          0.098607  
         C69       1.0000    0.95490   0.83650   0.04240   Biso      1.000     C          -0.182782           
         C70       1.0000    0.98170   0.77340   0.01730   Biso      1.000     C          0.084674  
         C71       1.0000    0.02530   0.97240   0.07100   Biso      1.000     C          0.104999  
         C72       1.0000    0.09850   0.04460   0.06130   Biso      1.000     C          -0.177799           
         C73       1.0000    0.06620   0.10800   0.08580   Biso      1.000     C          0.104166  
         C74       1.0000    0.89760   0.03230   0.12880   Biso      1.000     C          0.064838  
         C75       1.0000    0.92000   0.96750   0.10500   Biso      1.000     C          -0.182889           
         C76       1.0000    0.51480   0.46870   0.84580   Biso      1.000     C          -0.199438           
         C77       1.0000    0.32710   0.49280   0.97110   Biso      1.000     C          -0.17203  
         C78       1.0000    0.23090   0.53980   0.96250   Biso      1.000     C          0.0856    
         C79       1.0000    0.63690   0.78320   0.97970   Biso      1.000     C          0.297652  
         C80       1.0000    0.55310   0.97620   0.49520   Biso      1.000     C          0.102134  
         C81       1.0000    0.53830   0.90050   0.50940   Biso      1.000     C          -0.17575  
         C82       1.0000    0.63950   0.85870   0.49940   Biso      1.000     C          0.099306  
         C83       1.0000    0.71190   0.15290   0.22500   Biso      1.000     C          0.087092  
         C84       1.0000    0.63200   0.10890   0.25930   Biso      1.000     C          -0.187963           
         C85       1.0000    0.68570   0.05910   0.28910   Biso      1.000     C          0.10775   
         C86       1.0000    0.82390   0.05680   0.28360   Biso      1.000     C          -0.190563           
         C87       1.0000    0.89690   0.10290   0.24860   Biso      1.000     C          0.07433   
         C88       1.0000    0.59710   0.00760   0.32400   Biso      1.000     C          0.098602  
         C89       1.0000    0.61760   0.93470   0.33550   Biso      1.000     C          -0.185412           
         C90       1.0000    0.52450   0.88680   0.36470   Biso      1.000     C          0.098054  
         C91       1.0000    0.39800   0.98020   0.37430   Biso      1.000     C          0.076263  
         C92       1.0000    0.48520   0.03130   0.34580   Biso      1.000     C          -0.199438           
         C93       1.0000    0.80350   0.66600   0.49870   Biso      1.000     C          0.088769  
         C94       1.0000    0.82130   0.59960   0.52420   Biso      1.000     C          -0.180171           
         C95       1.0000    0.94660   0.59680   0.54580   Biso      1.000     C          0.098606  
         C96       1.0000    0.04510   0.66350   0.54240   Biso      1.000     C          -0.182783           
         C97       1.0000    0.01830   0.72660   0.51730   Biso      1.000     C          0.084674  
         C98       1.0000    0.97470   0.52760   0.57100   Biso      1.000     C          0.104998  
         C99       1.0000    0.90150   0.45540   0.56130   Biso      1.000     C          -0.177799           
         C100      1.0000    0.93380   0.39200   0.58580   Biso      1.000     C          0.104167  
         C101      1.0000    0.10240   0.46770   0.62880   Biso      1.000     C          0.064838  
         C102      1.0000    0.08000   0.53250   0.60500   Biso      1.000     C          -0.182889           
         C103      1.0000    0.28810   0.84710   0.77500   Biso      1.000     C          0.087092  
         C104      1.0000    0.36800   0.89110   0.74070   Biso      1.000     C          -0.187958           
         Cu1       1.0000    0.75405   0.17626   0.59216   Biso      1.000     Cu          0.435451  
         Cu2       1.0000    0.75405   0.67626   0.90784   Biso      1.000     Cu          0.435452  
         Cu3       1.0000    0.11531   0.18053   0.54955   Biso      1.000     Cu          0.355851  
         Cu4       1.0000    0.05419   0.29837   0.65788   Biso      1.000     Cu          0.344831  
         Cu5       1.0000    0.24595   0.32374   0.09216   Biso      1.000     Cu          0.435451  
         Cu6       1.0000    0.88469   0.31947   0.04955   Biso      1.000     Cu          0.355856  
         Cu7       1.0000    0.94581   0.20163   0.15788   Biso      1.000     Cu          0.344827  
         Cu8       1.0000    0.24595   0.82374   0.40784   Biso      1.000     Cu          0.435454  
         Cu9       1.0000    0.88469   0.81947   0.45045   Biso      1.000     Cu          0.355854  
         Cu10      1.0000    0.94581   0.70163   0.34212   Biso      1.000     Cu          0.344826  
         Cu11      1.0000    0.11531   0.68053   0.95045   Biso      1.000     Cu          0.355857  
         Cu12      1.0000    0.05419   0.79837   0.84212   Biso      1.000     Cu          0.344829  
         H1        1.0000    0.45830   0.37670   0.97390   Biso      1.000     H          0.124451  
         H2        1.0000    0.68930   0.55940   0.03930   Biso      1.000     H          0.12887   
         H3        1.0000    0.85090   0.48210   0.05390   Biso      1.000     H          0.083144  
         H4        1.0000    0.82940   0.02680   0.15340   Biso      1.000     H          0.091719  
         H5        1.0000    0.82940   0.52680   0.34660   Biso      1.000     H          0.091719  
         H6        1.0000    0.62660   0.30670   0.98990   Biso      1.000     H          0.081735  
         H7        1.0000    0.86370   0.41920   0.38840   Biso      1.000     H          0.128505  
         H8        1.0000    0.67220   0.68710   0.29490   Biso      1.000     H          0.101492  
         H9        1.0000    0.32230   0.49750   0.11140   Biso      1.000     H          0.080662  
         H10       1.0000    0.86640   0.52410   0.19630   Biso      1.000     H          0.112276  
         H11       1.0000    0.99110   0.60150   0.25450   Biso      1.000     H          0.095457  
         H12       1.0000    0.69560   0.41720   0.17650   Biso      1.000     H          0.110998  
         H13       1.0000    0.54060   0.33660   0.12800   Biso      1.000     H          0.100005  
         H14       1.0000    0.11760   0.65730   0.42170   Biso      1.000     H          0.085975  
         H15       1.0000    0.46960   0.58230   0.15890   Biso      1.000     H          0.127048  
         H16       1.0000    0.53890   0.61300   0.23750   Biso      1.000     H          0.129437  
         H17       1.0000    0.17050   0.55110   0.46190   Biso      1.000     H          0.123785  
         H18       1.0000    0.67770   0.00250   0.61140   Biso      1.000     H          0.08066   
         H19       1.0000    0.86880   0.33460   0.44250   Biso      1.000     H          0.116405  
         H20       1.0000    0.14910   0.01790   0.55390   Biso      1.000     H          0.083142  
         H21       1.0000    0.31070   0.94060   0.53930   Biso      1.000     H          0.12887   
         H22       1.0000    0.54170   0.12330   0.47390   Biso      1.000     H          0.124451  
         H23       1.0000    0.37340   0.19330   0.48990   Biso      1.000     H          0.081734  
         H24       1.0000    0.32780   0.81290   0.79490   Biso      1.000     H          0.101492  
         H25       1.0000    0.46110   0.88700   0.73750   Biso      1.000     H          0.129437  
         H26       1.0000    0.91220   0.22890   0.48430   Biso      1.000     H          0.092379  
         H27       1.0000    0.13360   0.97590   0.69630   Biso      1.000     H          0.112275  
         H28       1.0000    0.30440   0.08280   0.67650   Biso      1.000     H          0.110998  
         H29       1.0000    0.45940   0.16340   0.62800   Biso      1.000     H          0.100005  
         H30       1.0000    0.71850   0.16630   0.01670   Biso      1.000     H          0.088023  
         H31       1.0000    0.53040   0.91770   0.65890   Biso      1.000     H          0.127046  
         H32       1.0000    0.86370   0.91920   0.11160   Biso      1.000     H          0.128503  
         H33       1.0000    0.25140   0.44310   0.47320   Biso      1.000     H          0.13256   
         H34       1.0000    0.00890   0.89850   0.75450   Biso      1.000     H          0.095457  
         H35       1.0000    0.74860   0.05690   0.97320   Biso      1.000     H          0.13256   
         H36       1.0000    0.28150   0.33370   0.51670   Biso      1.000     H          0.088023  
         H37       1.0000    0.08780   0.27110   0.98430   Biso      1.000     H          0.09238   
         H38       1.0000    0.13630   0.58080   0.61160   Biso      1.000     H          0.128504  
         H39       1.0000    0.14910   0.51790   0.94610   Biso      1.000     H          0.083144  
         H40       1.0000    0.31070   0.44060   0.96070   Biso      1.000     H          0.12887   
         H41       1.0000    0.54170   0.62330   0.02610   Biso      1.000     H          0.124451  
         H42       1.0000    0.37340   0.69330   0.01010   Biso      1.000     H          0.081734  
         H43       1.0000    0.32780   0.31290   0.70510   Biso      1.000     H          0.101491  
         H44       1.0000    0.46110   0.38700   0.76250   Biso      1.000     H          0.129437  
         H45       1.0000    0.13360   0.47590   0.80370   Biso      1.000     H          0.112275  
         H46       1.0000    0.00890   0.39850   0.74550   Biso      1.000     H          0.095458  
         H47       1.0000    0.30440   0.58280   0.82350   Biso      1.000     H          0.110997  
         H48       1.0000    0.45940   0.66340   0.87200   Biso      1.000     H          0.100005  
         H49       1.0000    0.67770   0.50250   0.88860   Biso      1.000     H          0.080661  
         H50       1.0000    0.53040   0.41770   0.84110   Biso      1.000     H          0.127046  
         H51       1.0000    0.28150   0.83370   0.98330   Biso      1.000     H          0.088022  
         H52       1.0000    0.13120   0.16540   0.94250   Biso      1.000     H          0.116406  
         H53       1.0000    0.86880   0.83460   0.05750   Biso      1.000     H          0.116405  
         H54       1.0000    0.91220   0.72890   0.01570   Biso      1.000     H          0.092379  
         H55       1.0000    0.17050   0.05110   0.03810   Biso      1.000     H          0.123785  
         H56       1.0000    0.11760   0.15730   0.07830   Biso      1.000     H          0.085975  
         H57       1.0000    0.17060   0.47320   0.65340   Biso      1.000     H          0.091719  
         H58       1.0000    0.88240   0.34270   0.57830   Biso      1.000     H          0.085975  
         H59       1.0000    0.25140   0.94310   0.02680   Biso      1.000     H          0.13256   
         H60       1.0000    0.08780   0.77110   0.51570   Biso      1.000     H          0.092379  
         H61       1.0000    0.82950   0.44890   0.53810   Biso      1.000     H          0.123785  
         H62       1.0000    0.82950   0.94890   0.96190   Biso      1.000     H          0.123785  
         H63       1.0000    0.88240   0.84270   0.92170   Biso      1.000     H          0.085975  
         H64       1.0000    0.17060   0.97320   0.84660   Biso      1.000     H          0.091718  
         H65       1.0000    0.85090   0.98210   0.44610   Biso      1.000     H          0.083142  
         H66       1.0000    0.68930   0.05940   0.46070   Biso      1.000     H          0.12887   
         H67       1.0000    0.45830   0.87670   0.52610   Biso      1.000     H          0.124451  
         H68       1.0000    0.62660   0.80670   0.51010   Biso      1.000     H          0.081734  
         H69       1.0000    0.67220   0.18710   0.20510   Biso      1.000     H          0.101492  
         H70       1.0000    0.53890   0.11300   0.26250   Biso      1.000     H          0.129437  
         H71       1.0000    0.86640   0.02410   0.30370   Biso      1.000     H          0.112274  
         H72       1.0000    0.13630   0.08080   0.88840   Biso      1.000     H          0.128503  
         H73       1.0000    0.46960   0.08230   0.34110   Biso      1.000     H          0.127047  
         H74       1.0000    0.74860   0.55690   0.52680   Biso      1.000     H          0.13256   
         H75       1.0000    0.71850   0.66630   0.48330   Biso      1.000     H          0.088023  
         H76       1.0000    0.32230   0.99750   0.38860   Biso      1.000     H          0.08066   
         H77       1.0000    0.54060   0.83660   0.37200   Biso      1.000     H          0.100005  
         H78       1.0000    0.13120   0.66540   0.55750   Biso      1.000     H          0.116405  
         H79       1.0000    0.69560   0.91720   0.32350   Biso      1.000     H          0.110998  
         H80       1.0000    0.99110   0.10150   0.24550   Biso      1.000     H          0.095456  
         Mo1       1.0000    0.98427   0.64879   0.86444   Biso      1.000     Mo          0.493208  
         Mo2       1.0000    0.01573   0.85121   0.36444   Biso      1.000     Mo          0.493209  
         Mo3       1.0000    0.01573   0.35121   0.13556   Biso      1.000     Mo          0.493206  
         Mo4       1.0000    0.98427   0.14879   0.63556   Biso      1.000     Mo          0.493211  
         N1        1.0000    0.75260   0.38680   0.02410   Biso      1.000     N          -0.191298           
         N2        1.0000    0.75260   0.88680   0.47590   Biso      1.000     N          -0.1913   
         N3        1.0000    0.84400   0.64950   0.28150   Biso      1.000     N          -0.198385           
         N4        1.0000    0.41240   0.40850   0.11680   Biso      1.000     N          -0.207004           
         N5        1.0000    0.89990   0.22890   0.00490   Biso      1.000     N          -0.193978           
         N6        1.0000    0.03210   0.89620   0.88110   Biso      1.000     N          -0.19608  
         N7        1.0000    0.32450   0.25580   0.04860   Biso      1.000     N          -0.481237           
         N8        1.0000    0.67550   0.24420   0.54860   Biso      1.000     N          -0.481237           
         N9        1.0000    0.32450   0.75580   0.45140   Biso      1.000     N          -0.481237           
         N10       1.0000    0.41240   0.90850   0.38320   Biso      1.000     N          -0.207005           
         N11       1.0000    0.89990   0.72890   0.49510   Biso      1.000     N          -0.193979           
         N12       1.0000    0.03210   0.39620   0.61890   Biso      1.000     N          -0.196079           
         N13       1.0000    0.24740   0.61320   0.97590   Biso      1.000     N          -0.191299           
         N14       1.0000    0.15600   0.35050   0.71850   Biso      1.000     N          -0.198385           
         N15       1.0000    0.58760   0.59150   0.88320   Biso      1.000     N          -0.207004           
         N16       1.0000    0.96790   0.60380   0.38110   Biso      1.000     N          -0.19608  
         N17       1.0000    0.10010   0.77110   0.99510   Biso      1.000     N          -0.193979           
         N18       1.0000    0.84400   0.14950   0.21850   Biso      1.000     N          -0.198386           
         N19       1.0000    0.10010   0.27110   0.50490   Biso      1.000     N          -0.193979           
         N20       1.0000    0.67550   0.74420   0.95140   Biso      1.000     N          -0.481239           
         N21       1.0000    0.15600   0.85050   0.78150   Biso      1.000     N          -0.198386           
         N22       1.0000    0.24740   0.11320   0.52410   Biso      1.000     N          -0.1913   
         N23       1.0000    0.96790   0.10380   0.11890   Biso      1.000     N          -0.196079           
         N24       1.0000    0.58760   0.09150   0.61680   Biso      1.000     N          -0.207004           
         S1        1.0000    0.84400   0.22417   0.66642   Biso      1.000     S          -0.541811           
         S2        1.0000    0.19222   0.22288   0.62498   Biso      1.000     S          -0.587183           
         S3        1.0000    0.90556   0.10606   0.56050   Biso      1.000     S          -0.549155           
         S4        1.0000    0.58130   0.33830   0.47899   Biso      1.000     S          -0.456155           
         S5        1.0000    0.15600   0.27583   0.16642   Biso      1.000     S          -0.541781           
         S6        1.0000    0.80778   0.27712   0.12498   Biso      1.000     S          -0.587185           
         S7        1.0000    0.15600   0.77583   0.33358   Biso      1.000     S          -0.541797           
         S8        1.0000    0.80778   0.77712   0.37502   Biso      1.000     S          -0.587184           
         S9        1.0000    0.09444   0.89394   0.43950   Biso      1.000     S          -0.549177           
         S10       1.0000    0.41870   0.66170   0.52101   Biso      1.000     S          -0.456158           
         S11       1.0000    0.84400   0.72417   0.83358   Biso      1.000     S          -0.541791           
         S12       1.0000    0.19222   0.72288   0.87502   Biso      1.000     S          -0.587184           
         S13       1.0000    0.90556   0.60606   0.93950   Biso      1.000     S          -0.54918  
         S14       1.0000    0.58130   0.83830   0.02101   Biso      1.000     S          -0.456159           
         S15       1.0000    0.09444   0.39394   0.06050   Biso      1.000     S          -0.549195           
         S16       1.0000    0.41870   0.16170   0.97899   Biso      1.000     S          -0.456157 