
##########################################################################
#               Crystallographic Information Format file
#               Produced by PyCifRW module
#
#  This is a CIF file.  CIF has been adopted by the International
#  Union of Crystallography as the standard for data archiving and
#  transmission.
#
#  For information on this file format, follow the CIF links at
#  http://www.iucr.org
##########################################################################

data_image0

_cell_length_a                          12.13
_cell_length_b                          12.7016
_cell_length_c                          21.819
_cell_angle_alpha                       82.7499
_cell_angle_beta                        74.675
_cell_angle_gamma                       61.4777
_symmetry_space_group_name_H-M          'P 1'
_symmetry_int_tables_number             1
loop_
  _symmetry_equiv_pos_as_xyz
         'x, y, z' 
loop_
  _atom_site_label
  _atom_site_occupancy
  _atom_site_fract_x
  _atom_site_fract_y
  _atom_site_fract_z
  _atom_site_thermal_displace_type
  _atom_site_B_iso_or_equiv
  _atom_site_type_symbol
  _atom_site_charge
         C1        1.0000    0.62680   0.00580   0.45540   Biso      1.000     C          0.52515   
         C2        1.0000    0.69400   0.11400   0.52850   Biso      1.000     C          -0.18372  
         C3        1.0000    0.78230   0.09760   0.56310   Biso      1.000     C          0.11048800000000002           
         C4        1.0000    0.87370   0.97860   0.56890   Biso      1.000     C          -0.210015           
         C5        1.0000    0.87220   0.88960   0.54050   Biso      1.000     C          0.147871  
         C6        1.0000    0.96590   0.75620   0.54400   Biso      1.000     C          0.579028  
         C7        1.0000    0.53510   0.48320   0.69350   Biso      1.000     C          0.640667  
         C8        1.0000    0.65870   0.37540   0.65800   Biso      1.000     C          0.140227  
         C9        1.0000    0.66000   0.29000   0.62320   Biso      1.000     C          -0.181505           
         C10       1.0000    0.77690   0.19320   0.59790   Biso      1.000     C          0.134635  
         C11       1.0000    0.88910   0.19180   0.60450   Biso      1.000     C          -0.166771           
         C12       1.0000    0.87960   0.27920   0.63930   Biso      1.000     C          0.14207   
         C13       1.0000    0.99610   0.28200   0.65290   Biso      1.000     C          0.616599  
         C14       1.0000    0.35320   0.36840   0.85040   Biso      1.000     C          0.657929  
         C15       1.0000    0.48440   0.09720   0.19450   Biso      1.000     C          -0.166274           
         C16       1.0000    0.42180   0.21840   0.19710   Biso      1.000     C          0.152035  
         C17       1.0000    0.60000   0.83600   0.30090   Biso      1.000     C          -0.157795           
         C18       1.0000    0.65980   0.71440   0.29890   Biso      1.000     C          0.13977   
         C19       1.0000    0.63260   0.99420   0.95540   Biso      1.000     C          0.52678   
         C20       1.0000    0.72050   0.98100   0.99980   Biso      1.000     C          0.18676800000000002           
         C21       1.0000    0.80800   0.88600   0.02850   Biso      1.000     C          -0.181859           
         C22       1.0000    0.87990   0.90240   0.06310   Biso      1.000     C          0.10981400000000001           
         C23       1.0000    0.85230   0.02140   0.06890   Biso      1.000     C          -0.211571           
         C24       1.0000    0.76180   0.11040   0.04050   Biso      1.000     C          0.149667  
         C25       1.0000    0.72210   0.24380   0.04400   Biso      1.000     C          0.580797  
         C26       1.0000    0.01830   0.51680   0.19350   Biso      1.000     C          0.637112  
         C27       1.0000    0.70150   0.01900   0.49980   Biso      1.000     C          0.18795   
         C28       1.0000    0.03410   0.62460   0.15800   Biso      1.000     C          0.14103800000000002           
         C29       1.0000    0.37420   0.28560   0.79890   Biso      1.000     C          0.138926  
         C30       1.0000    0.64020   0.78160   0.69710   Biso      1.000     C          0.15144200000000002           
         C31       1.0000    0.51530   0.96940   0.75000   Biso      1.000     C          0.114072  
         C32       1.0000    0.45100   0.09800   0.75000   Biso      1.000     C          0.130469  
         C33       1.0000    0.48470   0.03060   0.25000   Biso      1.000     C          0.114074  
         C34       1.0000    0.54900   0.90200   0.25000   Biso      1.000     C          0.130469  
         C35       1.0000    0.51560   0.90280   0.80550   Biso      1.000     C          -0.166274           
         C36       1.0000    0.57820   0.78160   0.80290   Biso      1.000     C          0.152035  
         C37       1.0000    0.40000   0.16400   0.69910   Biso      1.000     C          -0.157796           
         C38       1.0000    0.34020   0.28560   0.70110   Biso      1.000     C          0.13977   
         C39       1.0000    0.36740   0.00580   0.04460   Biso      1.000     C          0.52678   
         C40       1.0000    0.27950   0.01900   0.00020   Biso      1.000     C          0.18676800000000002           
         C41       1.0000    0.19200   0.11400   0.97150   Biso      1.000     C          -0.181859           
         C42       1.0000    0.12010   0.09760   0.93690   Biso      1.000     C          0.10981400000000001           
         C43       1.0000    0.14770   0.97860   0.93110   Biso      1.000     C          -0.21157199999999998          
         C44       1.0000    0.23820   0.88960   0.95950   Biso      1.000     C          0.149667  
         C45       1.0000    0.27790   0.75620   0.95600   Biso      1.000     C          0.580797  
         C46       1.0000    0.98170   0.48320   0.80650   Biso      1.000     C          0.637112  
         C47       1.0000    0.96590   0.37540   0.84200   Biso      1.000     C          0.14103800000000002           
         C48       1.0000    0.05000   0.29000   0.87680   Biso      1.000     C          -0.180197           
         C49       1.0000    0.02990   0.19320   0.90210   Biso      1.000     C          0.13209   
         C50       1.0000    0.91910   0.19180   0.89550   Biso      1.000     C          -0.163832           
         C51       1.0000    0.84120   0.27920   0.86070   Biso      1.000     C          0.14097300000000001           
         C52       1.0000    0.72190   0.28200   0.84710   Biso      1.000     C          0.617803  
         C53       1.0000    0.58130   0.69960   0.86050   Biso      1.000     C          0.616428  
         C54       1.0000    0.27840   0.36840   0.64960   Biso      1.000     C          0.657285  
         C55       1.0000    0.58160   0.90280   0.69450   Biso      1.000     C          -0.16561700000000001          
         C56       1.0000    0.43600   0.16400   0.80090   Biso      1.000     C          -0.15839  
         C57       1.0000    0.95000   0.71000   0.12320   Biso      1.000     C          -0.180196           
         C58       1.0000    0.71910   0.69960   0.63950   Biso      1.000     C          0.617354  
         C59       1.0000    0.08090   0.80820   0.10450   Biso      1.000     C          -0.163832           
         C60       1.0000    0.97010   0.80680   0.09790   Biso      1.000     C          0.13209   
         C61       1.0000    0.64680   0.63160   0.14960   Biso      1.000     C          0.657929  
         C62       1.0000    0.28090   0.30040   0.36050   Biso      1.000     C          0.6173529999999999  
         C63       1.0000    0.00390   0.71800   0.34710   Biso      1.000     C          0.6166    
         C64       1.0000    0.12040   0.72080   0.36070   Biso      1.000     C          0.142065  
         C65       1.0000    0.11090   0.80820   0.39550   Biso      1.000     C          -0.166765           
         C66       1.0000    0.22310   0.80680   0.40210   Biso      1.000     C          0.134632  
         C67       1.0000    0.34000   0.71000   0.37680   Biso      1.000     C          -0.181502           
         C68       1.0000    0.46490   0.51680   0.30650   Biso      1.000     C          0.640667  
         C69       1.0000    0.03410   0.24380   0.45600   Biso      1.000     C          0.579029  
         C70       1.0000    0.12780   0.11040   0.45950   Biso      1.000     C          0.14786300000000002           
         C71       1.0000    0.12630   0.02140   0.43110   Biso      1.000     C          -0.210006           
         C72       1.0000    0.34130   0.62460   0.34200   Biso      1.000     C          0.140227  
         C73       1.0000    0.30600   0.88600   0.47150   Biso      1.000     C          -0.18372  
         C74       1.0000    0.15880   0.72080   0.13930   Biso      1.000     C          0.14097300000000001           
         C75       1.0000    0.21770   0.90240   0.43690   Biso      1.000     C          0.11048599999999999           
         C76       1.0000    0.41870   0.30040   0.13950   Biso      1.000     C          0.616428  
         C77       1.0000    0.72160   0.63160   0.35040   Biso      1.000     C          0.657285  
         C78       1.0000    0.41840   0.09720   0.30550   Biso      1.000     C          -0.16563  
         C79       1.0000    0.35980   0.21840   0.30290   Biso      1.000     C          0.151454  
         C80       1.0000    0.27810   0.71800   0.15290   Biso      1.000     C          0.617803  
         C81       1.0000    0.62580   0.71440   0.20110   Biso      1.000     C          0.138926  
         C82       1.0000    0.37320   0.99420   0.54460   Biso      1.000     C          0.52515   
         C83       1.0000    0.29850   0.98100   0.50020   Biso      1.000     C          0.18795   
         C84       1.0000    0.56400   0.83600   0.19910   Biso      1.000     C          -0.15839  
         H1        1.0000    0.52700   0.05780   0.15460   Biso      1.000     H          0.141207  
         H2        1.0000    0.41820   0.70200   0.38320   Biso      1.000     H          0.13931   
         H3        1.0000    0.06370   0.04020   0.40750   Biso      1.000     H          0.130671  
         H4        1.0000    0.37260   0.80760   0.47560   Biso      1.000     H          0.133125  
         H5        1.0000    0.53170   0.87600   0.16310   Biso      1.000     H          0.14899500000000002           
         H6        1.0000    0.41520   0.05780   0.34540   Biso      1.000     H          0.141323  
         H7        1.0000    0.02860   0.86940   0.41510   Biso      1.000     H          0.140929  
         H8        1.0000    0.87980   0.70200   0.11680   Biso      1.000     H          0.138138  
         H9        1.0000    0.89610   0.04020   0.09250   Biso      1.000     H          0.130654  
         H10       1.0000    0.81980   0.80760   0.02440   Biso      1.000     H          0.13248800000000002           
         H11       1.0000    0.59230   0.87600   0.33690   Biso      1.000     H          0.14807599999999999           
         H12       1.0000    0.97140   0.13060   0.58490   Biso      1.000     H          0.14093   
         H13       1.0000    0.10200   0.86940   0.08490   Biso      1.000     H          0.140208  
         H14       1.0000    0.93630   0.95980   0.59250   Biso      1.000     H          0.130672  
         H15       1.0000    0.58180   0.29800   0.61680   Biso      1.000     H          0.139311  
         H16       1.0000    0.47300   0.94220   0.84540   Biso      1.000     H          0.141207  
         H17       1.0000    0.18020   0.19240   0.97560   Biso      1.000     H          0.13248800000000002           
         H18       1.0000    0.10390   0.95980   0.90750   Biso      1.000     H          0.130654  
         H19       1.0000    0.40770   0.12400   0.66310   Biso      1.000     H          0.14807599999999999           
         H20       1.0000    0.89800   0.13060   0.91510   Biso      1.000     H          0.140208  
         H21       1.0000    0.58480   0.94220   0.65460   Biso      1.000     H          0.141322  
         H22       1.0000    0.46830   0.12400   0.83690   Biso      1.000     H          0.14899500000000002           
         H23       1.0000    0.62740   0.19240   0.52440   Biso      1.000     H          0.133125  
         H24       1.0000    0.12020   0.29800   0.88320   Biso      1.000     H          0.138138  
         N1        1.0000    0.64130   0.71740   0.75000   Biso      1.000     N          -0.347211           
         N2        1.0000    0.70020   0.08920   0.00600   Biso      1.000     N          -0.413583           
         N3        1.0000    0.32630   0.34740   0.75000   Biso      1.000     N          -0.38983  
         N4        1.0000    0.35870   0.28260   0.25000   Biso      1.000     N          -0.34721199999999997          
         N5        1.0000    0.67370   0.65260   0.25000   Biso      1.000     N          -0.38983  
         N6        1.0000    0.29980   0.91080   0.99400   Biso      1.000     N          -0.413583           
         N7        1.0000    0.86610   0.36780   0.83130   Biso      1.000     N          -0.350516           
         N8        1.0000    0.76610   0.36780   0.66870   Biso      1.000     N          -0.350946           
         N9        1.0000    0.13390   0.63220   0.16870   Biso      1.000     N          -0.350516           
         N10       1.0000    0.78940   0.91080   0.50600   Biso      1.000     N          -0.413973           
         N11       1.0000    0.23390   0.63220   0.33130   Biso      1.000     N          -0.350945           
         N12       1.0000    0.21060   0.08920   0.49400   Biso      1.000     N          -0.413972           
         O1        1.0000    0.69200   0.68900   0.40220   Biso      1.000     O          -0.714218           
         O2        1.0000    0.37080   0.41040   0.14750   Biso      1.000     O          -0.603693           
         O3        1.0000    0.46590   0.24580   0.08690   Biso      1.000     O          -0.676665           
         O4        1.0000    0.96840   0.35100   0.69830   Biso      1.000     O          -0.612818           
         O5        1.0000    0.10370   0.22220   0.61830   Biso      1.000     O          -0.648379           
         O6        1.0000    0.55230   0.54760   0.72380   Biso      1.000     O          -0.6109640000000001           
         O7        1.0000    0.43160   0.49360   0.68750   Biso      1.000     O          -0.697372           
         O8        1.0000    0.96070   0.68700   0.51060   Biso      1.000     O          -0.69343  
         O9        1.0000    0.04520   0.72560   0.57750   Biso      1.000     O          -0.59618  
         O10       1.0000    0.59780   0.91620   0.46620   Biso      1.000     O          -0.616348           
         O11       1.0000    0.61620   0.09960   0.41730   Biso      1.000     O          -0.523257           
         O12       1.0000    0.30650   0.47420   0.84170   Biso      1.000     O          -0.582391           
         O13       1.0000    0.38100   0.31100   0.90220   Biso      1.000     O          -0.713548           
         O14       1.0000    0.71170   0.75420   0.58690   Biso      1.000     O          -0.677396           
         O15       1.0000    0.68060   0.35100   0.80170   Biso      1.000     O          -0.613815           
         O16       1.0000    0.67410   0.22220   0.88170   Biso      1.000     O          -0.649195           
         O17       1.0000    0.90010   0.54760   0.77620   Biso      1.000     O          -0.609414           
         O18       1.0000    0.78070   0.52580   0.34170   Biso      1.000     O          -0.581547           
         O19       1.0000    0.07480   0.49360   0.81250   Biso      1.000     O          -0.695526           
         O20       1.0000    0.35230   0.68700   0.98940   Biso      1.000     O          -0.6958810000000001           
         O21       1.0000    0.22920   0.72560   0.92250   Biso      1.000     O          -0.596705           
         O22       1.0000    0.48600   0.91620   0.03380   Biso      1.000     O          -0.617663           
         O23       1.0000    0.28420   0.09960   0.08270   Biso      1.000     O          -0.522844           
         O24       1.0000    0.21930   0.47420   0.65830   Biso      1.000     O          -0.581547           
         O25       1.0000    0.30800   0.31100   0.59780   Biso      1.000     O          -0.714218           
         O26       1.0000    0.78120   0.58960   0.64750   Biso      1.000     O          -0.604193           
         O27       1.0000    0.71580   0.90040   0.91730   Biso      1.000     O          -0.522844           
         O28       1.0000    0.53410   0.75420   0.91310   Biso      1.000     O          -0.676665           
         O29       1.0000    0.77080   0.27440   0.07750   Biso      1.000     O          -0.596705           
         O30       1.0000    0.62920   0.58960   0.85250   Biso      1.000     O          -0.603693           
         O31       1.0000    0.03160   0.64900   0.30170   Biso      1.000     O          -0.612818           
         O32       1.0000    0.89630   0.77780   0.38170   Biso      1.000     O          -0.648379           
         O33       1.0000    0.44770   0.45240   0.27620   Biso      1.000     O          -0.6109640000000001           
         O34       1.0000    0.56840   0.50640   0.31250   Biso      1.000     O          -0.697372           
         O35       1.0000    0.51400   0.08380   0.96620   Biso      1.000     O          -0.617663           
         O36       1.0000    0.95480   0.27440   0.42250   Biso      1.000     O          -0.59618  
         O37       1.0000    0.40220   0.08380   0.53380   Biso      1.000     O          -0.616348           
         O38       1.0000    0.38380   0.90040   0.58270   Biso      1.000     O          -0.523257           
         O39       1.0000    0.03930   0.31300   0.48940   Biso      1.000     O          -0.69343  
         O40       1.0000    0.61900   0.68900   0.09780   Biso      1.000     O          -0.713548           
         O41       1.0000    0.21880   0.41040   0.35250   Biso      1.000     O          -0.6041920000000001           
         O42       1.0000    0.28830   0.24580   0.41310   Biso      1.000     O          -0.677396           
         O43       1.0000    0.31940   0.64900   0.19830   Biso      1.000     O          -0.613815           
         O44       1.0000    0.32590   0.77780   0.11830   Biso      1.000     O          -0.649195           
         O45       1.0000    0.09990   0.45240   0.22380   Biso      1.000     O          -0.609414           
         O46       1.0000    0.92520   0.50640   0.18750   Biso      1.000     O          -0.695526           
         O47       1.0000    0.64770   0.31300   0.01060   Biso      1.000     O          -0.6958810000000001           
         O48       1.0000    0.69350   0.52580   0.15830   Biso      1.000     O          -0.582391           
         Tb1       1.0000    0.49268   0.73906   0.02555   Biso      1.000     Tb          2.045484  
         Tb2       1.0000    0.23174   0.26094   0.52555   Biso      1.000     Tb          2.04408   
         Tb3       1.0000    0.50732   0.26094   0.97445   Biso      1.000     Tb          2.045484  
         Tb4       1.0000    0.75299   0.49402   0.75000   Biso      1.000     Tb          1.869721  
         Tb5       1.0000    0.21250   0.57500   0.75000   Biso      1.000     Tb          2.099392  
         Tb6       1.0000    0.24701   0.50598   0.25000   Biso      1.000     Tb          1.869721  
         Tb7       1.0000    0.78750   0.42500   0.25000   Biso      1.000     Tb          2.099392  
         Tb8       1.0000    0.76826   0.73906   0.47445   Biso      1.000     Tb          2.04408 