
##########################################################################
#               Crystallographic Information Format file
#               Produced by PyCifRW module
#
#  This is a CIF file.  CIF has been adopted by the International
#  Union of Crystallography as the standard for data archiving and
#  transmission.
#
#  For information on this file format, follow the CIF links at
#  http://www.iucr.org
##########################################################################

data_image0

_cell_length_a                          12.0648
_cell_length_b                          12.3787
_cell_length_c                          12.5148
_cell_angle_alpha                       90
_cell_angle_beta                        90
_cell_angle_gamma                       115.069
_symmetry_space_group_name_H-M          'P 1'
_symmetry_int_tables_number             1
loop_
  _symmetry_equiv_pos_as_xyz
         'x, y, z' 
loop_
  _atom_site_label
  _atom_site_occupancy
  _atom_site_fract_x
  _atom_site_fract_y
  _atom_site_fract_z
  _atom_site_thermal_displace_type
  _atom_site_B_iso_or_equiv
  _atom_site_type_symbol
  _atom_site_charge
         C1        1.0000    0.29130   0.87080   0.21590   Biso      1.000     C          -0.152191           
         C2        1.0000    0.39220   0.85460   0.25310   Biso      1.000     C          0.132128  
         C3        1.0000    0.36990   0.76780   0.32980   Biso      1.000     C          -0.172544           
         C4        1.0000    0.25310   0.70520   0.37060   Biso      1.000     C          0.14925   
         C5        1.0000    0.70840   0.19930   0.04460   Biso      1.000     C          0.569245  
         C6        1.0000    0.83550   0.94080   0.23110   Biso      1.000     C          0.607058  
         C7        1.0000    0.06490   0.82010   0.22720   Biso      1.000     C          0.636433  
         C8        1.0000    0.22420   0.60630   0.44770   Biso      1.000     C          0.575974  
         C9        1.0000    0.17850   0.80610   0.26030   Biso      1.000     C          0.138891  
         C10       1.0000    0.66770   0.59290   0.38070   Biso      1.000     C          0.161481  
         C11       1.0000    0.61140   0.39550   0.25850   Biso      1.000     C          -0.166629           
         C12       1.0000    0.72810   0.46650   0.29220   Biso      1.000     C          0.119114  
         C13       1.0000    0.17850   0.30610   0.23970   Biso      1.000     C          0.138887  
         C14       1.0000    0.29130   0.37080   0.28410   Biso      1.000     C          -0.152186           
         C15       1.0000    0.39220   0.35460   0.24690   Biso      1.000     C          0.132127  
         C16       1.0000    0.36990   0.26780   0.17020   Biso      1.000     C          -0.172544           
         C17       1.0000    0.25310   0.20520   0.12940   Biso      1.000     C          0.14925   
         C18       1.0000    0.51780   0.42670   0.28610   Biso      1.000     C          0.130372  
         C19       1.0000    0.70840   0.69930   0.45540   Biso      1.000     C          0.569245  
         C20       1.0000    0.72810   0.96650   0.20780   Biso      1.000     C          0.119109  
         C21       1.0000    0.51780   0.92670   0.21390   Biso      1.000     C          0.13037   
         C22       1.0000    0.33230   0.40710   0.61930   Biso      1.000     C          0.161481  
         C23       1.0000    0.45190   0.47170   0.65070   Biso      1.000     C          -0.158007           
         C24       1.0000    0.48220   0.57330   0.71390   Biso      1.000     C          0.13037   
         C25       1.0000    0.38860   0.60450   0.74150   Biso      1.000     C          -0.166627           
         C26       1.0000    0.27190   0.53350   0.70780   Biso      1.000     C          0.119113  
         C27       1.0000    0.82150   0.69390   0.76030   Biso      1.000     C          0.138887  
         C28       1.0000    0.70870   0.62920   0.71590   Biso      1.000     C          -0.152186           
         C29       1.0000    0.61140   0.89550   0.24150   Biso      1.000     C          -0.166623           
         C30       1.0000    0.60780   0.64540   0.75310   Biso      1.000     C          0.132128  
         C31       1.0000    0.74690   0.79480   0.87060   Biso      1.000     C          0.149248  
         C32       1.0000    0.29160   0.30070   0.54460   Biso      1.000     C          0.569245  
         C33       1.0000    0.16450   0.55920   0.73110   Biso      1.000     C          0.607058  
         C34       1.0000    0.93510   0.67990   0.72720   Biso      1.000     C          0.636434  
         C35       1.0000    0.77580   0.89370   0.94770   Biso      1.000     C          0.575974  
         C36       1.0000    0.66770   0.09290   0.11930   Biso      1.000     C          0.161481  
         C37       1.0000    0.54810   0.02830   0.15070   Biso      1.000     C          -0.158006           
         C38       1.0000    0.63010   0.73220   0.82980   Biso      1.000     C          -0.172542           
         C39       1.0000    0.83550   0.44080   0.26890   Biso      1.000     C          0.607058  
         C40       1.0000    0.54810   0.52830   0.34930   Biso      1.000     C          -0.158006           
         C41       1.0000    0.22420   0.10630   0.05230   Biso      1.000     C          0.575974  
         C42       1.0000    0.06490   0.32010   0.27280   Biso      1.000     C          0.636434  
         C43       1.0000    0.77580   0.39370   0.55230   Biso      1.000     C          0.575974  
         C44       1.0000    0.93510   0.17990   0.77280   Biso      1.000     C          0.636434  
         C45       1.0000    0.16450   0.05920   0.76890   Biso      1.000     C          0.607058  
         C46       1.0000    0.74690   0.29480   0.62940   Biso      1.000     C          0.149249  
         C47       1.0000    0.63010   0.23220   0.67020   Biso      1.000     C          -0.172546           
         C48       1.0000    0.60780   0.14540   0.74690   Biso      1.000     C          0.13213   
         C49       1.0000    0.29160   0.80070   0.95540   Biso      1.000     C          0.569245  
         C50       1.0000    0.82150   0.19390   0.73970   Biso      1.000     C          0.138887  
         C51       1.0000    0.27190   0.03350   0.79220   Biso      1.000     C          0.119109  
         C52       1.0000    0.38860   0.10450   0.75850   Biso      1.000     C          -0.166624           
         C53       1.0000    0.48220   0.07330   0.78610   Biso      1.000     C          0.130372  
         C54       1.0000    0.45190   0.97170   0.84930   Biso      1.000     C          -0.158008           
         C55       1.0000    0.33230   0.90710   0.88070   Biso      1.000     C          0.161483  
         C56       1.0000    0.70870   0.12920   0.78410   Biso      1.000     C          -0.152186           
         H1        1.0000    0.59550   0.32770   0.21770   Biso      1.000     H          0.142715  
         H2        1.0000    0.30050   0.42510   0.33850   Biso      1.000     H          0.14088   
         H3        1.0000    0.87040   0.32780   0.21760   Biso      1.000     H          0.423756  
         H4        1.0000    0.69950   0.07490   0.83850   Biso      1.000     H          0.14088   
         H5        1.0000    0.40450   0.17230   0.71770   Biso      1.000     H          0.142715  
         H6        1.0000    0.56630   0.24880   0.64560   Biso      1.000     H          0.142739  
         H7        1.0000    0.48790   0.55220   0.37010   Biso      1.000     H          0.141125  
         H8        1.0000    0.12960   0.17220   0.71760   Biso      1.000     H          0.423756  
         H9        1.0000    0.51210   0.94780   0.87010   Biso      1.000     H          0.141125  
         H10       1.0000    0.87040   0.82780   0.28240   Biso      1.000     H          0.423756  
         H11       1.0000    0.43370   0.25120   0.14560   Biso      1.000     H          0.142739  
         H12       1.0000    0.30050   0.92510   0.16150   Biso      1.000     H          0.14088   
         H13       1.0000    0.59550   0.82770   0.28230   Biso      1.000     H          0.142715  
         H14       1.0000    0.48790   0.05220   0.12990   Biso      1.000     H          0.141125  
         H15       1.0000    0.12960   0.67220   0.78240   Biso      1.000     H          0.423756  
         H16       1.0000    0.56630   0.74880   0.85440   Biso      1.000     H          0.142739  
         H17       1.0000    0.69950   0.57490   0.66150   Biso      1.000     H          0.14088   
         H18       1.0000    0.40450   0.67230   0.78230   Biso      1.000     H          0.142715  
         H19       1.0000    0.51210   0.44780   0.62990   Biso      1.000     H          0.141125  
         H20       1.0000    0.43370   0.75120   0.35440   Biso      1.000     H          0.142739  
         N1        1.0000    0.24280   0.43690   0.64820   Biso      1.000     N          -0.383274           
         N2        1.0000    0.84120   0.77280   0.83980   Biso      1.000     N          -0.388838           
         N3        1.0000    0.75720   0.06310   0.14820   Biso      1.000     N          -0.383273           
         N4        1.0000    0.15880   0.72720   0.33980   Biso      1.000     N          -0.388838           
         N5        1.0000    0.15880   0.22720   0.16020   Biso      1.000     N          -0.388838           
         N6        1.0000    0.75720   0.56310   0.35180   Biso      1.000     N          -0.383274           
         N7        1.0000    0.84120   0.27280   0.66020   Biso      1.000     N          -0.388838           
         N8        1.0000    0.24280   0.93690   0.85180   Biso      1.000     N          -0.383273           
         O1        1.0000    0.63370   0.73860   0.47780   Biso      1.000     O          -0.545943           
         O2        1.0000    0.11870   0.57080   0.49530   Biso      1.000     O          -0.756192           
         O3        1.0000    0.29470   0.56110   0.45950   Biso      1.000     O          -0.494401           
         O4        1.0000    0.97890   0.78050   0.29600   Biso      1.000     O          -0.659404           
         O5        1.0000    0.06130   0.86430   0.14020   Biso      1.000     O          -0.617235           
         O6        1.0000    0.93910   0.01550   0.21480   Biso      1.000     O          -0.540149           
         O7        1.0000    0.80750   0.83510   0.26820   Biso      1.000     O          -0.474465           
         O8        1.0000    0.81860   0.23690   0.01230   Biso      1.000     O          -0.695873           
         O9        1.0000    0.88130   0.92920   0.99530   Biso      1.000     O          -0.756192           
         O10       1.0000    0.70530   0.93890   0.95950   Biso      1.000     O          -0.494401           
         O11       1.0000    0.02110   0.71950   0.79600   Biso      1.000     O          -0.659404           
         O12       1.0000    0.81860   0.73690   0.48770   Biso      1.000     O          -0.695873           
         O13       1.0000    0.93870   0.63570   0.64020   Biso      1.000     O          -0.617235           
         O14       1.0000    0.06090   0.48450   0.71480   Biso      1.000     O          -0.540149           
         O15       1.0000    0.19250   0.66490   0.76820   Biso      1.000     O          -0.474465           
         O16       1.0000    0.63370   0.23860   0.02220   Biso      1.000     O          -0.545943           
         O17       1.0000    0.80750   0.33510   0.23180   Biso      1.000     O          -0.474465           
         O18       1.0000    0.36630   0.26140   0.52220   Biso      1.000     O          -0.545943           
         O19       1.0000    0.06130   0.36430   0.35980   Biso      1.000     O          -0.617235           
         O20       1.0000    0.18140   0.26310   0.51230   Biso      1.000     O          -0.695873           
         O21       1.0000    0.88130   0.42920   0.50470   Biso      1.000     O          -0.756192           
         O22       1.0000    0.70530   0.43890   0.54050   Biso      1.000     O          -0.494401           
         O23       1.0000    0.02110   0.21950   0.70400   Biso      1.000     O          -0.659404           
         O24       1.0000    0.93910   0.51550   0.28520   Biso      1.000     O          -0.540149           
         O25       1.0000    0.06090   0.98450   0.78520   Biso      1.000     O          -0.540149           
         O26       1.0000    0.93870   0.13570   0.85980   Biso      1.000     O          -0.617235           
         O27       1.0000    0.18140   0.76310   0.98770   Biso      1.000     O          -0.695873           
         O28       1.0000    0.36630   0.76140   0.97780   Biso      1.000     O          -0.545943           
         O29       1.0000    0.11870   0.07080   0.00470   Biso      1.000     O          -0.756192           
         O30       1.0000    0.29470   0.06110   0.04050   Biso      1.000     O          -0.494401           
         O31       1.0000    0.97890   0.28050   0.20400   Biso      1.000     O          -0.659404           
         O32       1.0000    0.19250   0.16490   0.73180   Biso      1.000     O          -0.474465           
         Sm1       1.0000    0.04033   0.85483   0.94925   Biso      1.000     Sm          1.993981  
         Sm2       1.0000    0.95967   0.64517   0.44925   Biso      1.000     Sm          1.993982  
         Sm3       1.0000    0.95967   0.14517   0.05075   Biso      1.000     Sm          1.993981  
         Sm4       1.0000    0.04033   0.35483   0.55075   Biso      1.000     Sm          1.993981 