
##########################################################################
#               Crystallographic Information Format file
#               Produced by PyCifRW module
#
#  This is a CIF file.  CIF has been adopted by the International
#  Union of Crystallography as the standard for data archiving and
#  transmission.
#
#  For information on this file format, follow the CIF links at
#  http://www.iucr.org
##########################################################################

data_image0

_cell_length_a                          12.134
_cell_length_b                          12.391
_cell_length_c                          12.72
_cell_angle_alpha                       90
_cell_angle_beta                        90
_cell_angle_gamma                       114.777
_symmetry_space_group_name_H-M          'P 1'
_symmetry_int_tables_number             1
loop_
  _symmetry_equiv_pos_as_xyz
         'x, y, z' 
loop_
  _atom_site_label
  _atom_site_occupancy
  _atom_site_fract_x
  _atom_site_fract_y
  _atom_site_fract_z
  _atom_site_thermal_displace_type
  _atom_site_B_iso_or_equiv
  _atom_site_type_symbol
  _atom_site_charge
         C1        1.0000    0.78950   0.37090   0.21880   Biso      1.000     C          -0.150456           
         C2        1.0000    0.11070   0.64740   0.74530   Biso      1.000     C          0.128953  
         C3        1.0000    0.21050   0.62910   0.78120   Biso      1.000     C          -0.150456           
         C4        1.0000    0.32260   0.69210   0.73470   Biso      1.000     C          0.129966  
         C5        1.0000    0.77490   0.53150   0.79070   Biso      1.000     C          0.116292  
         C6        1.0000    0.89070   0.60430   0.75720   Biso      1.000     C          -0.162526           
         C7        1.0000    0.98580   0.57430   0.78480   Biso      1.000     C          0.124204  
         C8        1.0000    0.95830   0.47440   0.84780   Biso      1.000     C          -0.156209           
         C9        1.0000    0.83880   0.40820   0.87970   Biso      1.000     C          0.158129  
         C10       1.0000    0.72150   0.60570   0.05120   Biso      1.000     C          0.565168  
         C11       1.0000    0.56510   0.82280   0.26750   Biso      1.000     C          0.627662  
         C12       1.0000    0.33300   0.94370   0.26600   Biso      1.000     C          0.57864   
         C13       1.0000    0.13220   0.73500   0.66920   Biso      1.000     C          -0.164909           
         C14       1.0000    0.19820   0.19730   0.45400   Biso      1.000     C          0.567352  
         C15       1.0000    0.86780   0.76500   0.16920   Biso      1.000     C          -0.16491  
         C16       1.0000    0.88930   0.85260   0.24530   Biso      1.000     C          0.128954  
         C17       1.0000    0.78950   0.87090   0.28120   Biso      1.000     C          -0.150456           
         C18       1.0000    0.67740   0.80790   0.23470   Biso      1.000     C          0.129966  
         C19       1.0000    0.22510   0.96850   0.29070   Biso      1.000     C          0.116292  
         C20       1.0000    0.10930   0.89570   0.25720   Biso      1.000     C          -0.162526           
         C21       1.0000    0.01420   0.92570   0.28480   Biso      1.000     C          0.124204  
         C22       1.0000    0.04170   0.02560   0.34780   Biso      1.000     C          -0.156209           
         C23       1.0000    0.16120   0.09180   0.37970   Biso      1.000     C          0.158129  
         C24       1.0000    0.72150   0.10570   0.44880   Biso      1.000     C          0.565168  
         C25       1.0000    0.56510   0.32280   0.23250   Biso      1.000     C          0.627662  
         C26       1.0000    0.75210   0.70520   0.12840   Biso      1.000     C          0.144429  
         C27       1.0000    0.24790   0.79480   0.62840   Biso      1.000     C          0.144428  
         C28       1.0000    0.80180   0.30270   0.95400   Biso      1.000     C          0.567352  
         C29       1.0000    0.66700   0.55630   0.76600   Biso      1.000     C          0.57864   
         C30       1.0000    0.83880   0.90820   0.62030   Biso      1.000     C          0.158128  
         C31       1.0000    0.95830   0.97440   0.65220   Biso      1.000     C          -0.156208           
         C32       1.0000    0.98580   0.07430   0.71520   Biso      1.000     C          0.124204  
         C33       1.0000    0.89070   0.10430   0.74280   Biso      1.000     C          -0.162528           
         C34       1.0000    0.77490   0.03150   0.70930   Biso      1.000     C          0.116295  
         C35       1.0000    0.32260   0.19210   0.76530   Biso      1.000     C          0.129965  
         C36       1.0000    0.21050   0.12910   0.71880   Biso      1.000     C          -0.150455           
         C37       1.0000    0.11070   0.14740   0.75470   Biso      1.000     C          0.128954  
         C38       1.0000    0.13220   0.23500   0.83080   Biso      1.000     C          -0.164909           
         C39       1.0000    0.24790   0.29480   0.87160   Biso      1.000     C          0.144428  
         C40       1.0000    0.80180   0.80270   0.54600   Biso      1.000     C          0.567352  
         C41       1.0000    0.66700   0.05630   0.73400   Biso      1.000     C          0.57864   
         C42       1.0000    0.43490   0.17720   0.73250   Biso      1.000     C          0.627662  
         C43       1.0000    0.27850   0.39430   0.94880   Biso      1.000     C          0.565168  
         C44       1.0000    0.16120   0.59180   0.12030   Biso      1.000     C          0.158128  
         C45       1.0000    0.04170   0.52560   0.15220   Biso      1.000     C          -0.156209           
         C46       1.0000    0.01420   0.42570   0.21520   Biso      1.000     C          0.124204  
         C47       1.0000    0.10930   0.39570   0.24280   Biso      1.000     C          -0.162528           
         C48       1.0000    0.22510   0.46850   0.20930   Biso      1.000     C          0.116295  
         C49       1.0000    0.67740   0.30790   0.26530   Biso      1.000     C          0.129966  
         C50       1.0000    0.88930   0.35260   0.25470   Biso      1.000     C          0.128954  
         C51       1.0000    0.86780   0.26500   0.33080   Biso      1.000     C          -0.164909           
         C52       1.0000    0.75210   0.20520   0.37160   Biso      1.000     C          0.144429  
         C53       1.0000    0.27850   0.89430   0.55120   Biso      1.000     C          0.565168  
         C54       1.0000    0.43490   0.67720   0.76750   Biso      1.000     C          0.627662  
         C55       1.0000    0.33300   0.44370   0.23400   Biso      1.000     C          0.57864   
         C56       1.0000    0.19820   0.69730   0.04600   Biso      1.000     C          0.567352  
         Ce1       1.0000    0.54490   0.85365   0.54661   Biso      1.000     Ce          1.963687  
         Ce2       1.0000    0.45510   0.64635   0.04661   Biso      1.000     Ce          1.963687  
         Ce3       1.0000    0.45510   0.14635   0.45339   Biso      1.000     Ce          1.963687  
         Ce4       1.0000    0.54490   0.35365   0.95339   Biso      1.000     Ce          1.963687  
         H1        1.0000    0.02050   0.95150   0.63100   Biso      1.000     H          0.139974  
         H2        1.0000    0.62100   0.67300   0.72200   Biso      1.000     H          0.382765  
         H3        1.0000    0.06790   0.75350   0.64540   Biso      1.000     H          0.145271  
         H4        1.0000    0.20160   0.57440   0.83640   Biso      1.000     H          0.140398  
         H5        1.0000    0.90540   0.67310   0.71630   Biso      1.000     H          0.140961  
         H6        1.0000    0.02050   0.45150   0.86900   Biso      1.000     H          0.139975  
         H7        1.0000    0.37900   0.82700   0.22200   Biso      1.000     H          0.382765  
         H8        1.0000    0.93210   0.74650   0.14540   Biso      1.000     H          0.145271  
         H9        1.0000    0.79840   0.92560   0.33640   Biso      1.000     H          0.140399  
         H10       1.0000    0.90540   0.17310   0.78370   Biso      1.000     H          0.140961  
         H11       1.0000    0.97950   0.04850   0.36900   Biso      1.000     H          0.139975  
         H12       1.0000    0.37900   0.32700   0.27800   Biso      1.000     H          0.382765  
         H13       1.0000    0.93210   0.24650   0.35460   Biso      1.000     H          0.145271  
         H14       1.0000    0.79840   0.42560   0.16360   Biso      1.000     H          0.140399  
         H15       1.0000    0.09460   0.32690   0.28370   Biso      1.000     H          0.140961  
         H16       1.0000    0.97950   0.54850   0.13100   Biso      1.000     H          0.139975  
         H17       1.0000    0.62100   0.17300   0.77800   Biso      1.000     H          0.382765  
         H18       1.0000    0.06790   0.25350   0.85460   Biso      1.000     H          0.145271  
         H19       1.0000    0.20160   0.07440   0.66360   Biso      1.000     H          0.140399  
         H20       1.0000    0.09460   0.82690   0.21630   Biso      1.000     H          0.140961  
         N1        1.0000    0.74833   0.93510   0.65019   Biso      1.000     N          -0.371438           
         N2        1.0000    0.25167   0.56490   0.15019   Biso      1.000     N          -0.371438           
         N3        1.0000    0.65882   0.22940   0.34267   Biso      1.000     N          -0.370857           
         N4        1.0000    0.34118   0.27060   0.84267   Biso      1.000     N          -0.370857           
         N5        1.0000    0.65882   0.72940   0.15733   Biso      1.000     N          -0.370857           
         N6        1.0000    0.74833   0.43510   0.84981   Biso      1.000     N          -0.371438           
         N7        1.0000    0.34118   0.77060   0.65733   Biso      1.000     N          -0.370857           
         N8        1.0000    0.25167   0.06490   0.34981   Biso      1.000     N          -0.371438           
         O1        1.0000    0.78952   0.05599   0.45907   Biso      1.000     O          -0.504923           
         O2        1.0000    0.47993   0.28729   0.30067   Biso      1.000     O          -0.632848           
         O3        1.0000    0.56182   0.36644   0.14660   Biso      1.000     O          -0.601653           
         O4        1.0000    0.43668   0.51919   0.21592   Biso      1.000     O          -0.547658           
         O5        1.0000    0.30536   0.33910   0.27220   Biso      1.000     O          -0.431326           
         O6        1.0000    0.30666   0.73614   0.01099   Biso      1.000     O          -0.685551           
         O7        1.0000    0.38098   0.42562   0.99743   Biso      1.000     O          -0.726156           
         O8        1.0000    0.21048   0.44401   0.95907   Biso      1.000     O          -0.504923           
         O9        1.0000    0.52007   0.21271   0.80067   Biso      1.000     O          -0.632848           
         O10       1.0000    0.43818   0.13356   0.64660   Biso      1.000     O          -0.601653           
         O11       1.0000    0.56332   0.98081   0.71592   Biso      1.000     O          -0.547658           
         O12       1.0000    0.69464   0.16090   0.77220   Biso      1.000     O          -0.431326           
         O13       1.0000    0.61902   0.07438   0.49743   Biso      1.000     O          -0.726156           
         O14       1.0000    0.12193   0.73530   0.02571   Biso      1.000     O          -0.547341           
         O15       1.0000    0.12193   0.23530   0.47429   Biso      1.000     O          -0.547341           
         O16       1.0000    0.38098   0.92562   0.50257   Biso      1.000     O          -0.726156           
         O17       1.0000    0.30536   0.83910   0.22780   Biso      1.000     O          -0.431326           
         O18       1.0000    0.43668   0.01919   0.28408   Biso      1.000     O          -0.547658           
         O19       1.0000    0.56182   0.86644   0.35340   Biso      1.000     O          -0.601653           
         O20       1.0000    0.47993   0.78729   0.19933   Biso      1.000     O          -0.632848           
         O21       1.0000    0.78952   0.55599   0.04093   Biso      1.000     O          -0.504923           
         O22       1.0000    0.61902   0.57438   0.00257   Biso      1.000     O          -0.726156           
         O23       1.0000    0.87807   0.26470   0.97429   Biso      1.000     O          -0.547341           
         O24       1.0000    0.69334   0.26386   0.98901   Biso      1.000     O          -0.685551           
         O25       1.0000    0.69464   0.66090   0.72780   Biso      1.000     O          -0.431326           
         O26       1.0000    0.56332   0.48081   0.78408   Biso      1.000     O          -0.547658           
         O27       1.0000    0.43818   0.63356   0.85340   Biso      1.000     O          -0.601653           
         O28       1.0000    0.52007   0.71271   0.69933   Biso      1.000     O          -0.632848           
         O29       1.0000    0.21048   0.94401   0.54093   Biso      1.000     O          -0.504923           
         O30       1.0000    0.69334   0.76386   0.51099   Biso      1.000     O          -0.685551           
         O31       1.0000    0.30666   0.23614   0.48901   Biso      1.000     O          -0.685552           
         O32       1.0000    0.87807   0.76470   0.52571   Biso      1.000     O          -0.547341 