
##########################################################################
#               Crystallographic Information Format file
#               Produced by PyCifRW module
#
#  This is a CIF file.  CIF has been adopted by the International
#  Union of Crystallography as the standard for data archiving and
#  transmission.
#
#  For information on this file format, follow the CIF links at
#  http://www.iucr.org
##########################################################################

data_image0

_cell_length_a                          12.13
_cell_length_b                          12.7016
_cell_length_c                          21.819
_cell_angle_alpha                       82.7499
_cell_angle_beta                        74.675
_cell_angle_gamma                       61.4777
_symmetry_space_group_name_H-M          'P 1'
_symmetry_int_tables_number             1
loop_
  _symmetry_equiv_pos_as_xyz
         'x, y, z' 
loop_
  _atom_site_label
  _atom_site_occupancy
  _atom_site_fract_x
  _atom_site_fract_y
  _atom_site_fract_z
  _atom_site_thermal_displace_type
  _atom_site_B_iso_or_equiv
  _atom_site_type_symbol
  _atom_site_charge
         C1        1.0000    0.62760   0.01060   0.45280   Biso      1.000     C          0.5138189999999999  
         C2        1.0000    0.69550   0.11460   0.52820   Biso      1.000     C          -0.18199400000000002          
         C3        1.0000    0.78230   0.09860   0.56300   Biso      1.000     C          0.112174  
         C4        1.0000    0.87360   0.97880   0.56920   Biso      1.000     C          -0.20638  
         C5        1.0000    0.87220   0.88960   0.54080   Biso      1.000     C          0.14540899999999998           
         C6        1.0000    0.96630   0.75540   0.54440   Biso      1.000     C          0.579047  
         C7        1.0000    0.53520   0.48220   0.69350   Biso      1.000     C          0.6349319999999999  
         C8        1.0000    0.65940   0.37520   0.65770   Biso      1.000     C          0.144322  
         C9        1.0000    0.66070   0.29000   0.62270   Biso      1.000     C          -0.181027           
         C10       1.0000    0.77700   0.19400   0.59760   Biso      1.000     C          0.133963  
         C11       1.0000    0.88990   0.19160   0.60460   Biso      1.000     C          -0.165604           
         C12       1.0000    0.87950   0.27940   0.63920   Biso      1.000     C          0.140511  
         C13       1.0000    0.99660   0.28160   0.65300   Biso      1.000     C          0.617129  
         C14       1.0000    0.35350   0.36700   0.85060   Biso      1.000     C          0.659365  
         C15       1.0000    0.48310   0.09760   0.19450   Biso      1.000     C          -0.167711           
         C16       1.0000    0.42250   0.21860   0.19720   Biso      1.000     C          0.152117  
         C17       1.0000    0.59910   0.83580   0.30120   Biso      1.000     C          -0.157364           
         C18       1.0000    0.65950   0.71460   0.29920   Biso      1.000     C          0.141005  
         C19       1.0000    0.63820   0.98940   0.95280   Biso      1.000     C          0.514482  
         C20       1.0000    0.72280   0.98040   0.99900   Biso      1.000     C          0.186115  
         C21       1.0000    0.81010   0.88540   0.02820   Biso      1.000     C          -0.18268  
         C22       1.0000    0.88090   0.90140   0.06300   Biso      1.000     C          0.11083399999999999           
         C23       1.0000    0.85240   0.02120   0.06920   Biso      1.000     C          -0.209973           
         C24       1.0000    0.76180   0.11040   0.04080   Biso      1.000     C          0.146798  
         C25       1.0000    0.72170   0.24460   0.04440   Biso      1.000     C          0.5792189999999999  
         C26       1.0000    0.01740   0.51780   0.19350   Biso      1.000     C          0.63443   
         C27       1.0000    0.70320   0.01960   0.49900   Biso      1.000     C          0.18517   
         C28       1.0000    0.03460   0.62480   0.15770   Biso      1.000     C          0.144014  
         C29       1.0000    0.37410   0.28540   0.79920   Biso      1.000     C          0.13939200000000002           
         C30       1.0000    0.64110   0.78140   0.69720   Biso      1.000     C          0.153398  
         C31       1.0000    0.51540   0.96920   0.75000   Biso      1.000     C          0.11342999999999999           
         C32       1.0000    0.45090   0.09820   0.75000   Biso      1.000     C          0.130584  
         C33       1.0000    0.48460   0.03080   0.25000   Biso      1.000     C          0.11343099999999999           
         C34       1.0000    0.54910   0.90180   0.25000   Biso      1.000     C          0.130584  
         C35       1.0000    0.51690   0.90240   0.80550   Biso      1.000     C          -0.167711           
         C36       1.0000    0.57750   0.78140   0.80280   Biso      1.000     C          0.152116  
         C37       1.0000    0.40090   0.16420   0.69880   Biso      1.000     C          -0.157364           
         C38       1.0000    0.34050   0.28540   0.70080   Biso      1.000     C          0.141005  
         C39       1.0000    0.36180   0.01060   0.04720   Biso      1.000     C          0.514482  
         C40       1.0000    0.27720   0.01960   0.00100   Biso      1.000     C          0.186115  
         C41       1.0000    0.18990   0.11460   0.97180   Biso      1.000     C          -0.18268  
         C42       1.0000    0.11910   0.09860   0.93700   Biso      1.000     C          0.11083399999999999           
         C43       1.0000    0.14760   0.97880   0.93080   Biso      1.000     C          -0.209973           
         C44       1.0000    0.23820   0.88960   0.95920   Biso      1.000     C          0.146798  
         C45       1.0000    0.27830   0.75540   0.95560   Biso      1.000     C          0.5792189999999999  
         C46       1.0000    0.98260   0.48220   0.80650   Biso      1.000     C          0.63443   
         C47       1.0000    0.96540   0.37520   0.84230   Biso      1.000     C          0.144014  
         C48       1.0000    0.04930   0.29000   0.87730   Biso      1.000     C          -0.182134           
         C49       1.0000    0.02900   0.19400   0.90240   Biso      1.000     C          0.134244  
         C50       1.0000    0.91850   0.19160   0.89540   Biso      1.000     C          -0.16398  
         C51       1.0000    0.84110   0.27940   0.86080   Biso      1.000     C          0.136927  
         C52       1.0000    0.72180   0.28160   0.84700   Biso      1.000     C          0.618746  
         C53       1.0000    0.58160   0.69980   0.86090   Biso      1.000     C          0.61974   
         C54       1.0000    0.27950   0.36700   0.64940   Biso      1.000     C          0.6575340000000001  
         C55       1.0000    0.58070   0.90240   0.69450   Biso      1.000     C          -0.169378           
         C56       1.0000    0.43490   0.16420   0.80120   Biso      1.000     C          -0.15821300000000002          
         C57       1.0000    0.95070   0.71000   0.12270   Biso      1.000     C          -0.182134           
         C58       1.0000    0.71860   0.69980   0.63910   Biso      1.000     C          0.61822   
         C59       1.0000    0.08150   0.80840   0.10460   Biso      1.000     C          -0.16397899999999999          
         C60       1.0000    0.97100   0.80600   0.09760   Biso      1.000     C          0.134244  
         C61       1.0000    0.64650   0.63300   0.14940   Biso      1.000     C          0.659365  
         C62       1.0000    0.28140   0.30020   0.36090   Biso      1.000     C          0.618219  
         C63       1.0000    0.00340   0.71840   0.34700   Biso      1.000     C          0.6171300000000001  
         C64       1.0000    0.12050   0.72060   0.36080   Biso      1.000     C          0.140502  
         C65       1.0000    0.11010   0.80840   0.39540   Biso      1.000     C          -0.16559400000000002          
         C66       1.0000    0.22300   0.80600   0.40240   Biso      1.000     C          0.133959  
         C67       1.0000    0.33930   0.71000   0.37730   Biso      1.000     C          -0.181024           
         C68       1.0000    0.46480   0.51780   0.30650   Biso      1.000     C          0.6349319999999999  
         C69       1.0000    0.03370   0.24460   0.45560   Biso      1.000     C          0.579047  
         C70       1.0000    0.12780   0.11040   0.45920   Biso      1.000     C          0.145404  
         C71       1.0000    0.12640   0.02120   0.43080   Biso      1.000     C          -0.20637399999999997          
         C72       1.0000    0.34060   0.62480   0.34230   Biso      1.000     C          0.144322  
         C73       1.0000    0.30450   0.88540   0.47180   Biso      1.000     C          -0.18199400000000002          
         C74       1.0000    0.15890   0.72060   0.13920   Biso      1.000     C          0.136927  
         C75       1.0000    0.21770   0.90140   0.43700   Biso      1.000     C          0.112173  
         C76       1.0000    0.41840   0.30020   0.13910   Biso      1.000     C          0.61974   
         C77       1.0000    0.72050   0.63300   0.35060   Biso      1.000     C          0.6575340000000001  
         C78       1.0000    0.41930   0.09760   0.30550   Biso      1.000     C          -0.16938399999999998          
         C79       1.0000    0.35890   0.21860   0.30280   Biso      1.000     C          0.15340299999999998           
         C80       1.0000    0.27820   0.71840   0.15300   Biso      1.000     C          0.618746  
         C81       1.0000    0.62590   0.71460   0.20080   Biso      1.000     C          0.13939200000000002           
         C82       1.0000    0.37240   0.98940   0.54720   Biso      1.000     C          0.5138189999999999  
         C83       1.0000    0.29680   0.98040   0.50100   Biso      1.000     C          0.18517   
         C84       1.0000    0.56510   0.83580   0.19880   Biso      1.000     C          -0.15821300000000002          
         H1        1.0000    0.52470   0.05820   0.15450   Biso      1.000     H          0.14166600000000001           
         H2        1.0000    0.41750   0.70200   0.38380   Biso      1.000     H          0.138657  
         H3        1.0000    0.06360   0.04000   0.40710   Biso      1.000     H          0.129327  
         H4        1.0000    0.37130   0.80720   0.47590   Biso      1.000     H          0.131973  
         H5        1.0000    0.53320   0.87600   0.16270   Biso      1.000     H          0.14809   
         H6        1.0000    0.41710   0.05820   0.34550   Biso      1.000     H          0.142544  
         H7        1.0000    0.02770   0.87040   0.41450   Biso      1.000     H          0.141242  
         H8        1.0000    0.88050   0.70200   0.11620   Biso      1.000     H          0.138944  
         H9        1.0000    0.89640   0.04000   0.09290   Biso      1.000     H          0.131431  
         H10       1.0000    0.82150   0.80720   0.02410   Biso      1.000     H          0.132222  
         H11       1.0000    0.59080   0.87600   0.33730   Biso      1.000     H          0.147455  
         H12       1.0000    0.97230   0.12960   0.58550   Biso      1.000     H          0.141243  
         H13       1.0000    0.10190   0.87040   0.08550   Biso      1.000     H          0.14163   
         H14       1.0000    0.93640   0.96000   0.59290   Biso      1.000     H          0.129328  
         H15       1.0000    0.58250   0.29800   0.61620   Biso      1.000     H          0.138657  
         H16       1.0000    0.47530   0.94180   0.84550   Biso      1.000     H          0.14166600000000001           
         H17       1.0000    0.17850   0.19280   0.97590   Biso      1.000     H          0.132222  
         H18       1.0000    0.10360   0.96000   0.90710   Biso      1.000     H          0.131431  
         H19       1.0000    0.40920   0.12400   0.66270   Biso      1.000     H          0.147455  
         H20       1.0000    0.89810   0.12960   0.91450   Biso      1.000     H          0.14163   
         H21       1.0000    0.58290   0.94180   0.65450   Biso      1.000     H          0.142544  
         H22       1.0000    0.46680   0.12400   0.83730   Biso      1.000     H          0.14809   
         H23       1.0000    0.62870   0.19280   0.52410   Biso      1.000     H          0.131973  
         H24       1.0000    0.11950   0.29800   0.88380   Biso      1.000     H          0.138944  
         N1        1.0000    0.64140   0.71720   0.75000   Biso      1.000     N          -0.344062           
         N2        1.0000    0.69970   0.08980   0.00610   Biso      1.000     N          -0.409867           
         N3        1.0000    0.32650   0.34700   0.75000   Biso      1.000     N          -0.39045599999999997          
         N4        1.0000    0.35860   0.28280   0.25000   Biso      1.000     N          -0.344063           
         N5        1.0000    0.67350   0.65300   0.25000   Biso      1.000     N          -0.39045599999999997          
         N6        1.0000    0.30030   0.91020   0.99390   Biso      1.000     N          -0.409867           
         N7        1.0000    0.86690   0.36740   0.83140   Biso      1.000     N          -0.345692           
         N8        1.0000    0.76570   0.36740   0.66860   Biso      1.000     N          -0.347827           
         N9        1.0000    0.13310   0.63260   0.16860   Biso      1.000     N          -0.345692           
         N10       1.0000    0.78950   0.91020   0.50610   Biso      1.000     N          -0.411076           
         N11       1.0000    0.23430   0.63260   0.33140   Biso      1.000     N          -0.347827           
         N12       1.0000    0.21050   0.08980   0.49390   Biso      1.000     N          -0.411075           
         O1        1.0000    0.69100   0.68980   0.40220   Biso      1.000     O          -0.706666           
         O2        1.0000    0.37050   0.41040   0.14760   Biso      1.000     O          -0.6074189999999999           
         O3        1.0000    0.46540   0.24600   0.08660   Biso      1.000     O          -0.677124           
         O4        1.0000    0.96800   0.35080   0.69840   Biso      1.000     O          -0.613645           
         O5        1.0000    0.10400   0.22180   0.61840   Biso      1.000     O          -0.648842           
         O6        1.0000    0.55220   0.54800   0.72390   Biso      1.000     O          -0.617638           
         O7        1.0000    0.43170   0.49340   0.68740   Biso      1.000     O          -0.690525           
         O8        1.0000    0.96180   0.68620   0.51020   Biso      1.000     O          -0.6970270000000001           
         O9        1.0000    0.04650   0.72500   0.57710   Biso      1.000     O          -0.590132           
         O10       1.0000    0.60080   0.91760   0.46460   Biso      1.000     O          -0.619391           
         O11       1.0000    0.61590   0.10820   0.41500   Biso      1.000     O          -0.519559           
         O12       1.0000    0.30630   0.47400   0.84180   Biso      1.000     O          -0.5917899999999999           
         O13       1.0000    0.38080   0.31020   0.90220   Biso      1.000     O          -0.706966           
         O14       1.0000    0.71140   0.75400   0.58660   Biso      1.000     O          -0.6774899999999999           
         O15       1.0000    0.68120   0.35080   0.80160   Biso      1.000     O          -0.615322           
         O16       1.0000    0.67420   0.22180   0.88160   Biso      1.000     O          -0.648783           
         O17       1.0000    0.89980   0.54800   0.77610   Biso      1.000     O          -0.617858           
         O18       1.0000    0.78030   0.52600   0.34180   Biso      1.000     O          -0.591168           
         O19       1.0000    0.07490   0.49340   0.81260   Biso      1.000     O          -0.689245           
         O20       1.0000    0.35200   0.68620   0.98980   Biso      1.000     O          -0.697889           
         O21       1.0000    0.22850   0.72500   0.92290   Biso      1.000     O          -0.590568           
         O22       1.0000    0.48160   0.91760   0.03540   Biso      1.000     O          -0.619776           
         O23       1.0000    0.27590   0.10820   0.08500   Biso      1.000     O          -0.519942           
         O24       1.0000    0.21970   0.47400   0.65820   Biso      1.000     O          -0.591168           
         O25       1.0000    0.30900   0.31020   0.59780   Biso      1.000     O          -0.706666           
         O26       1.0000    0.78090   0.58960   0.64760   Biso      1.000     O          -0.606302           
         O27       1.0000    0.72410   0.89180   0.91500   Biso      1.000     O          -0.519942           
         O28       1.0000    0.53460   0.75400   0.91340   Biso      1.000     O          -0.677124           
         O29       1.0000    0.77150   0.27500   0.07710   Biso      1.000     O          -0.590569           
         O30       1.0000    0.62950   0.58960   0.85240   Biso      1.000     O          -0.6074189999999999           
         O31       1.0000    0.03200   0.64920   0.30160   Biso      1.000     O          -0.613645           
         O32       1.0000    0.89600   0.77820   0.38160   Biso      1.000     O          -0.648842           
         O33       1.0000    0.44780   0.45200   0.27610   Biso      1.000     O          -0.617638           
         O34       1.0000    0.56830   0.50660   0.31260   Biso      1.000     O          -0.690525           
         O35       1.0000    0.51840   0.08240   0.96460   Biso      1.000     O          -0.619776           
         O36       1.0000    0.95350   0.27500   0.42290   Biso      1.000     O          -0.590132           
         O37       1.0000    0.39920   0.08240   0.53540   Biso      1.000     O          -0.619391           
         O38       1.0000    0.38410   0.89180   0.58500   Biso      1.000     O          -0.519559           
         O39       1.0000    0.03820   0.31380   0.48980   Biso      1.000     O          -0.6970270000000001           
         O40       1.0000    0.61920   0.68980   0.09780   Biso      1.000     O          -0.706966           
         O41       1.0000    0.21910   0.41040   0.35240   Biso      1.000     O          -0.606302           
         O42       1.0000    0.28860   0.24600   0.41340   Biso      1.000     O          -0.6774899999999999           
         O43       1.0000    0.31880   0.64920   0.19840   Biso      1.000     O          -0.615322           
         O44       1.0000    0.32580   0.77820   0.11840   Biso      1.000     O          -0.648783           
         O45       1.0000    0.10020   0.45200   0.22390   Biso      1.000     O          -0.617858           
         O46       1.0000    0.92510   0.50660   0.18740   Biso      1.000     O          -0.689245           
         O47       1.0000    0.64800   0.31380   0.01020   Biso      1.000     O          -0.697889           
         O48       1.0000    0.69370   0.52600   0.15820   Biso      1.000     O          -0.5917899999999999           
         Tb1       1.0000    0.49264   0.73910   0.02556   Biso      1.000     Tb          2.049946  
         Tb2       1.0000    0.23174   0.26090   0.52556   Biso      1.000     Tb          2.049154  
         Tb3       1.0000    0.50736   0.26090   0.97444   Biso      1.000     Tb          2.049946  
         Tb4       1.0000    0.75298   0.49404   0.75000   Biso      1.000     Tb          1.8734169999999999  
         Tb5       1.0000    0.21250   0.57500   0.75000   Biso      1.000     Tb          2.101715  
         Tb6       1.0000    0.24702   0.50596   0.25000   Biso      1.000     Tb          1.8734169999999999  
         Tb7       1.0000    0.78750   0.42500   0.25000   Biso      1.000     Tb          2.101715  
         Tb8       1.0000    0.76826   0.73910   0.47444   Biso      1.000     Tb          2.049154 