
##########################################################################
#               Crystallographic Information Format file
#               Produced by PyCifRW module
#
#  This is a CIF file.  CIF has been adopted by the International
#  Union of Crystallography as the standard for data archiving and
#  transmission.
#
#  For information on this file format, follow the CIF links at
#  http://www.iucr.org
##########################################################################

data_image0

_cell_length_a                          12.12
_cell_length_b                          12.3605
_cell_length_c                          12.8067
_cell_angle_alpha                       90
_cell_angle_beta                        90
_cell_angle_gamma                       114.974
_symmetry_space_group_name_H-M          'P 1'
_symmetry_int_tables_number             1
loop_
  _symmetry_equiv_pos_as_xyz
         'x, y, z' 
loop_
  _atom_site_label
  _atom_site_occupancy
  _atom_site_fract_x
  _atom_site_fract_y
  _atom_site_fract_z
  _atom_site_thermal_displace_type
  _atom_site_B_iso_or_equiv
  _atom_site_type_symbol
  _atom_site_charge
         C1        1.0000    0.86510   0.26530   0.66970   Biso      1.000     C          -0.167295           
         C2        1.0000    0.19200   0.69510   0.95400   Biso      1.000     C          0.566257  
         C3        1.0000    0.72050   0.10680   0.55200   Biso      1.000     C          0.555178  
         C4        1.0000    0.56370   0.32190   0.76460   Biso      1.000     C          0.617939  
         C5        1.0000    0.22260   0.96820   0.70860   Biso      1.000     C          0.112678  
         C6        1.0000    0.10820   0.89690   0.74280   Biso      1.000     C          -0.169753           
         C7        1.0000    0.01150   0.92510   0.71590   Biso      1.000     C          0.128465  
         C8        1.0000    0.03910   0.02460   0.65230   Biso      1.000     C          -0.162135           
         C9        1.0000    0.15660   0.08980   0.62050   Biso      1.000     C          0.153419  
         C10       1.0000    0.75000   0.70470   0.87180   Biso      1.000     C          0.139787  
         C11       1.0000    0.86510   0.76530   0.83030   Biso      1.000     C          -0.167292           
         C12       1.0000    0.88620   0.85150   0.75550   Biso      1.000     C          0.129918  
         C13       1.0000    0.78810   0.87050   0.72020   Biso      1.000     C          -0.155815           
         C14       1.0000    0.67500   0.80790   0.76740   Biso      1.000     C          0.12753299999999998           
         C15       1.0000    0.33140   0.94550   0.73340   Biso      1.000     C          0.599328  
         C16       1.0000    0.19200   0.19510   0.54600   Biso      1.000     C          0.5662560000000001  
         C17       1.0000    0.33140   0.44550   0.76660   Biso      1.000     C          0.599327  
         C18       1.0000    0.72050   0.60680   0.94800   Biso      1.000     C          0.555178  
         C19       1.0000    0.67500   0.30790   0.73260   Biso      1.000     C          0.12753299999999998           
         C20       1.0000    0.88620   0.35150   0.74450   Biso      1.000     C          0.129918  
         C21       1.0000    0.13490   0.23470   0.16970   Biso      1.000     C          -0.167294           
         C22       1.0000    0.11380   0.14850   0.24450   Biso      1.000     C          0.129918  
         C23       1.0000    0.21190   0.12950   0.27980   Biso      1.000     C          -0.155815           
         C24       1.0000    0.32500   0.19210   0.23260   Biso      1.000     C          0.12753299999999998           
         C25       1.0000    0.66860   0.05450   0.26660   Biso      1.000     C          0.599328  
         C26       1.0000    0.80800   0.80490   0.45400   Biso      1.000     C          0.566257  
         C27       1.0000    0.27950   0.39320   0.05200   Biso      1.000     C          0.555178  
         C28       1.0000    0.43630   0.17810   0.26460   Biso      1.000     C          0.617939  
         C29       1.0000    0.22260   0.46820   0.79140   Biso      1.000     C          0.112678  
         C30       1.0000    0.10820   0.39690   0.75720   Biso      1.000     C          -0.169753           
         C31       1.0000    0.01150   0.42510   0.78410   Biso      1.000     C          0.128465  
         C32       1.0000    0.03910   0.52460   0.84770   Biso      1.000     C          -0.162135           
         C33       1.0000    0.15660   0.58980   0.87950   Biso      1.000     C          0.153419  
         C34       1.0000    0.75000   0.20470   0.62820   Biso      1.000     C          0.139789  
         C35       1.0000    0.96090   0.97540   0.34770   Biso      1.000     C          -0.16213699999999998          
         C36       1.0000    0.78810   0.37050   0.77980   Biso      1.000     C          -0.155816           
         C37       1.0000    0.56370   0.82190   0.73540   Biso      1.000     C          0.617939  
         C38       1.0000    0.77740   0.53180   0.20860   Biso      1.000     C          0.112678  
         C39       1.0000    0.89180   0.60310   0.24280   Biso      1.000     C          -0.169753           
         C40       1.0000    0.77740   0.03180   0.29140   Biso      1.000     C          0.112678  
         C41       1.0000    0.89180   0.10310   0.25720   Biso      1.000     C          -0.169753           
         C42       1.0000    0.98850   0.07490   0.28410   Biso      1.000     C          0.128467  
         C43       1.0000    0.25000   0.29530   0.12820   Biso      1.000     C          0.139789  
         C44       1.0000    0.43630   0.67810   0.23540   Biso      1.000     C          0.617939  
         C45       1.0000    0.27950   0.89320   0.44800   Biso      1.000     C          0.555178  
         C46       1.0000    0.80800   0.30490   0.04600   Biso      1.000     C          0.566257  
         C47       1.0000    0.66860   0.55450   0.23340   Biso      1.000     C          0.599328  
         C48       1.0000    0.84340   0.91020   0.37950   Biso      1.000     C          0.153419  
         C49       1.0000    0.21190   0.62950   0.22020   Biso      1.000     C          -0.155816           
         C50       1.0000    0.11380   0.64850   0.25550   Biso      1.000     C          0.129912  
         C51       1.0000    0.13490   0.73470   0.33030   Biso      1.000     C          -0.167287           
         C52       1.0000    0.98850   0.57490   0.21590   Biso      1.000     C          0.128465  
         C53       1.0000    0.96090   0.47540   0.15230   Biso      1.000     C          -0.162135           
         C54       1.0000    0.84340   0.41020   0.12050   Biso      1.000     C          0.153418  
         C55       1.0000    0.25000   0.79530   0.37180   Biso      1.000     C          0.13978800000000002           
         C56       1.0000    0.32500   0.69210   0.26740   Biso      1.000     C          0.12753299999999998           
         H1        1.0000    0.63370   0.66780   0.28420   Biso      1.000     H          0.41871400000000003           
         H2        1.0000    0.20270   0.57620   0.16610   Biso      1.000     H          0.140236  
         H3        1.0000    0.07150   0.75230   0.35310   Biso      1.000     H          0.143217  
         H4        1.0000    0.02210   0.45330   0.13160   Biso      1.000     H          0.14030399999999998           
         H5        1.0000    0.90540   0.66980   0.28360   Biso      1.000     H          0.13988299999999998           
         H6        1.0000    0.36630   0.83220   0.78420   Biso      1.000     H          0.41871400000000003           
         H7        1.0000    0.79730   0.92380   0.66610   Biso      1.000     H          0.140236  
         H8        1.0000    0.09460   0.83020   0.78360   Biso      1.000     H          0.13988299999999998           
         H9        1.0000    0.97790   0.04670   0.63160   Biso      1.000     H          0.14030399999999998           
         H10       1.0000    0.36630   0.33220   0.71580   Biso      1.000     H          0.41871400000000003           
         H11       1.0000    0.79730   0.42380   0.83390   Biso      1.000     H          0.140236  
         H12       1.0000    0.92850   0.24770   0.64690   Biso      1.000     H          0.143217  
         H13       1.0000    0.97790   0.54670   0.86840   Biso      1.000     H          0.14030399999999998           
         H14       1.0000    0.63370   0.16780   0.21580   Biso      1.000     H          0.41871400000000003           
         H15       1.0000    0.20270   0.07620   0.33390   Biso      1.000     H          0.140236  
         H16       1.0000    0.07150   0.25230   0.14690   Biso      1.000     H          0.143217  
         H17       1.0000    0.02210   0.95330   0.36840   Biso      1.000     H          0.14030399999999998           
         H18       1.0000    0.90540   0.16980   0.21640   Biso      1.000     H          0.13988299999999998           
         H19       1.0000    0.92850   0.74770   0.85310   Biso      1.000     H          0.143217  
         H20       1.0000    0.09460   0.33020   0.71640   Biso      1.000     H          0.13988299999999998           
         La1       1.0000    0.54822   0.85370   0.45520   Biso      1.000     La          1.8047849999999999  
         La2       1.0000    0.54822   0.35370   0.04480   Biso      1.000     La          1.804788  
         La3       1.0000    0.45178   0.14630   0.54480   Biso      1.000     La          1.804784  
         La4       1.0000    0.45178   0.64630   0.95520   Biso      1.000     La          1.804788  
         N1        1.0000    0.75260   0.93710   0.34990   Biso      1.000     N          -0.341382           
         N2        1.0000    0.34290   0.27000   0.15610   Biso      1.000     N          -0.342459           
         N3        1.0000    0.65710   0.23000   0.65610   Biso      1.000     N          -0.342459           
         N4        1.0000    0.24740   0.56290   0.84990   Biso      1.000     N          -0.341383           
         N5        1.0000    0.65710   0.73000   0.84390   Biso      1.000     N          -0.342459           
         N6        1.0000    0.75260   0.43710   0.15010   Biso      1.000     N          -0.341383           
         N7        1.0000    0.34290   0.77000   0.34390   Biso      1.000     N          -0.342458           
         N8        1.0000    0.24740   0.06290   0.65010   Biso      1.000     N          -0.341383           
         O1        1.0000    0.11650   0.73220   0.97350   Biso      1.000     O          -0.5379109999999999           
         O2        1.0000    0.56000   0.36440   0.84950   Biso      1.000     O          -0.5780850000000001           
         O3        1.0000    0.61810   0.07530   0.50230   Biso      1.000     O          -0.6773170000000001           
         O4        1.0000    0.78630   0.05440   0.54250   Biso      1.000     O          -0.500486           
         O5        1.0000    0.30110   0.73330   0.98940   Biso      1.000     O          -0.66509  
         O6        1.0000    0.43320   0.52010   0.78530   Biso      1.000     O          -0.5139779999999999           
         O7        1.0000    0.69890   0.76670   0.48940   Biso      1.000     O          -0.665089           
         O8        1.0000    0.52100   0.21100   0.19700   Biso      1.000     O          -0.6253920000000001           
         O9        1.0000    0.44000   0.13560   0.34950   Biso      1.000     O          -0.5780850000000001           
         O10       1.0000    0.38190   0.42470   0.00230   Biso      1.000     O          -0.6773170000000001           
         O11       1.0000    0.21370   0.44560   0.04250   Biso      1.000     O          -0.500486           
         O12       1.0000    0.47900   0.28900   0.69700   Biso      1.000     O          -0.6253920000000001           
         O13       1.0000    0.88350   0.76780   0.47350   Biso      1.000     O          -0.5379109999999999           
         O14       1.0000    0.30380   0.34080   0.72670   Biso      1.000     O          -0.48054600000000003          
         O15       1.0000    0.30380   0.84080   0.77330   Biso      1.000     O          -0.48054600000000003          
         O16       1.0000    0.61810   0.57530   0.99770   Biso      1.000     O          -0.6773170000000001           
         O17       1.0000    0.11650   0.23220   0.52650   Biso      1.000     O          -0.5379109999999999           
         O18       1.0000    0.30110   0.23330   0.51060   Biso      1.000     O          -0.665089           
         O19       1.0000    0.78630   0.55440   0.95750   Biso      1.000     O          -0.500486           
         O20       1.0000    0.56680   0.97990   0.28530   Biso      1.000     O          -0.513977           
         O21       1.0000    0.56000   0.86440   0.65050   Biso      1.000     O          -0.5780850000000001           
         O22       1.0000    0.47900   0.78900   0.80300   Biso      1.000     O          -0.6253920000000001           
         O23       1.0000    0.69620   0.65920   0.27330   Biso      1.000     O          -0.48054600000000003          
         O24       1.0000    0.56680   0.47990   0.21470   Biso      1.000     O          -0.5139779999999999           
         O25       1.0000    0.88350   0.26780   0.02650   Biso      1.000     O          -0.5379109999999999           
         O26       1.0000    0.69890   0.26670   0.01060   Biso      1.000     O          -0.66509  
         O27       1.0000    0.21370   0.94560   0.45750   Biso      1.000     O          -0.500486           
         O28       1.0000    0.38190   0.92470   0.49770   Biso      1.000     O          -0.677316           
         O29       1.0000    0.44000   0.63560   0.15050   Biso      1.000     O          -0.578086           
         O30       1.0000    0.52100   0.71100   0.30300   Biso      1.000     O          -0.6253920000000001           
         O31       1.0000    0.43320   0.02010   0.71470   Biso      1.000     O          -0.513977           
         O32       1.0000    0.69620   0.15920   0.22670   Biso      1.000     O          -0.48054600000000003 