
##########################################################################
#               Crystallographic Information Format file
#               Produced by PyCifRW module
#
#  This is a CIF file.  CIF has been adopted by the International
#  Union of Crystallography as the standard for data archiving and
#  transmission.
#
#  For information on this file format, follow the CIF links at
#  http://www.iucr.org
##########################################################################

data_image0

_cell_length_a                          12.126
_cell_length_b                          12.6787
_cell_length_c                          21.568
_cell_angle_alpha                       82.7587
_cell_angle_beta                        74.717
_cell_angle_gamma                       61.4318
_symmetry_space_group_name_H-M          'P 1'
_symmetry_int_tables_number             1
loop_
  _symmetry_equiv_pos_as_xyz
         'x, y, z' 
loop_
  _atom_site_label
  _atom_site_occupancy
  _atom_site_fract_x
  _atom_site_fract_y
  _atom_site_fract_z
  _atom_site_thermal_displace_type
  _atom_site_B_iso_or_equiv
  _atom_site_type_symbol
  _atom_site_charge
         C1        1.0000    0.62830   0.99760   0.46030   Biso      1.000     C          0.523383  
         C2        1.0000    0.65870   0.29060   0.62540   Biso      1.000     C          -0.172585           
         C3        1.0000    0.77730   0.19100   0.59850   Biso      1.000     C          0.132343  
         C4        1.0000    0.88820   0.19140   0.60510   Biso      1.000     C          -0.169064           
         C5        1.0000    0.87800   0.27920   0.64030   Biso      1.000     C          0.147059  
         C6        1.0000    0.99470   0.28360   0.65200   Biso      1.000     C          0.619009  
         C7        1.0000    0.72120   0.69560   0.63870   Biso      1.000     C          0.624363  
         C8        1.0000    0.28050   0.36500   0.64790   Biso      1.000     C          0.658537  
         C9        1.0000    0.47980   0.10040   0.19340   Biso      1.000     C          -0.16318  
         C10       1.0000    0.41950   0.22300   0.19580   Biso      1.000     C          0.152253  
         C11       1.0000    0.56310   0.83780   0.19910   Biso      1.000     C          -0.15624  
         C12       1.0000    0.62640   0.71520   0.20030   Biso      1.000     C          0.138371  
         C13       1.0000    0.62590   0.00240   0.96030   Biso      1.000     C          0.526607  
         C14       1.0000    0.71940   0.98120   0.00140   Biso      1.000     C          0.198987  
         C15       1.0000    0.80880   0.88640   0.02710   Biso      1.000     C          -0.177829           
         C16       1.0000    0.87860   0.90480   0.06430   Biso      1.000     C          0.10976   
         C17       1.0000    0.85030   0.02340   0.07020   Biso      1.000     C          -0.213641           
         C18       1.0000    0.76060   0.11280   0.04130   Biso      1.000     C          0.14429   
         C19       1.0000    0.72420   0.24560   0.04400   Biso      1.000     C          0.585642  
         C20       1.0000    0.02030   0.51740   0.19590   Biso      1.000     C          0.632101  
         C21       1.0000    0.03140   0.62520   0.16000   Biso      1.000     C          0.143727  
         C22       1.0000    0.94930   0.70940   0.12540   Biso      1.000     C          -0.171782           
         C23       1.0000    0.96830   0.80900   0.09850   Biso      1.000     C          0.132497  
         C24       1.0000    0.07960   0.80860   0.10510   Biso      1.000     C          -0.172716           
         C25       1.0000    0.65660   0.37480   0.66000   Biso      1.000     C          0.143867  
         C26       1.0000    0.15720   0.72080   0.14030   Biso      1.000     C          0.149722  
         C27       1.0000    0.53770   0.48260   0.69590   Biso      1.000     C          0.636537  
         C28       1.0000    0.87340   0.88720   0.54130   Biso      1.000     C          0.143519  
         C29       1.0000    0.19120   0.11360   0.97290   Biso      1.000     C          -0.177845           
         C30       1.0000    0.12140   0.09520   0.93570   Biso      1.000     C          0.109762  
         C31       1.0000    0.14970   0.97660   0.92980   Biso      1.000     C          -0.213642           
         C32       1.0000    0.23940   0.88720   0.95870   Biso      1.000     C          0.14429   
         C33       1.0000    0.27580   0.75440   0.95600   Biso      1.000     C          0.585642  
         C34       1.0000    0.97970   0.48260   0.80410   Biso      1.000     C          0.632101  
         C35       1.0000    0.96860   0.37480   0.84000   Biso      1.000     C          0.143727  
         C36       1.0000    0.05070   0.29060   0.87460   Biso      1.000     C          -0.171782           
         C37       1.0000    0.03170   0.19100   0.90150   Biso      1.000     C          0.132496  
         C38       1.0000    0.92040   0.19140   0.89490   Biso      1.000     C          -0.172716           
         C39       1.0000    0.84280   0.27920   0.85970   Biso      1.000     C          0.149722  
         C40       1.0000    0.72170   0.28360   0.84800   Biso      1.000     C          0.61992   
         C41       1.0000    0.58320   0.69560   0.86130   Biso      1.000     C          0.625705  
         C42       1.0000    0.35450   0.36500   0.85210   Biso      1.000     C          0.658036  
         C43       1.0000    0.58020   0.89960   0.69340   Biso      1.000     C          -0.163086           
         C44       1.0000    0.64250   0.77700   0.69580   Biso      1.000     C          0.152164  
         C45       1.0000    0.40090   0.16220   0.69910   Biso      1.000     C          -0.157731           
         C46       1.0000    0.34160   0.28480   0.70030   Biso      1.000     C          0.138199  
         C47       1.0000    0.37360   0.28480   0.79970   Biso      1.000     C          0.138355  
         C48       1.0000    0.70060   0.01880   0.50140   Biso      1.000     C          0.202431  
         C49       1.0000    0.69520   0.11360   0.52710   Biso      1.000     C          -0.179012           
         C50       1.0000    0.78340   0.09520   0.56430   Biso      1.000     C          0.1079    
         C51       1.0000    0.87370   0.97660   0.57020   Biso      1.000     C          -0.210878           
         C52       1.0000    0.96980   0.75440   0.54400   Biso      1.000     C          0.587356  
         C53       1.0000    0.27830   0.71640   0.15200   Biso      1.000     C          0.61992   
         C54       1.0000    0.41680   0.30440   0.13870   Biso      1.000     C          0.625705  
         C55       1.0000    0.64550   0.63500   0.14790   Biso      1.000     C          0.658035  
         C56       1.0000    0.51850   0.96300   0.75000   Biso      1.000     C          0.109641  
         C57       1.0000    0.45090   0.09820   0.75000   Biso      1.000     C          0.124401  
         C58       1.0000    0.48150   0.03700   0.25000   Biso      1.000     C          0.109641  
         C59       1.0000    0.54910   0.90180   0.25000   Biso      1.000     C          0.124399  
         C60       1.0000    0.52020   0.89960   0.80660   Biso      1.000     C          -0.163177           
         C61       1.0000    0.58050   0.77700   0.80420   Biso      1.000     C          0.152253  
         C62       1.0000    0.43690   0.16220   0.80090   Biso      1.000     C          -0.156221           
         C63       1.0000    0.28060   0.01880   0.99860   Biso      1.000     C          0.199003  
         C64       1.0000    0.71950   0.63500   0.35210   Biso      1.000     C          0.658538  
         C65       1.0000    0.27880   0.30440   0.36130   Biso      1.000     C          0.624363  
         C66       1.0000    0.00530   0.71640   0.34800   Biso      1.000     C          0.619009  
         C67       1.0000    0.12200   0.72080   0.35970   Biso      1.000     C          0.147051  
         C68       1.0000    0.11180   0.80860   0.39490   Biso      1.000     C          -0.169055           
         C69       1.0000    0.22270   0.80900   0.40150   Biso      1.000     C          0.132342  
         C70       1.0000    0.37410   0.99760   0.03970   Biso      1.000     C          0.526605  
         C71       1.0000    0.34340   0.62520   0.34000   Biso      1.000     C          0.14386   
         C72       1.0000    0.34130   0.70940   0.37460   Biso      1.000     C          -0.172577           
         C73       1.0000    0.30480   0.88640   0.47290   Biso      1.000     C          -0.179027           
         C74       1.0000    0.29940   0.98120   0.49860   Biso      1.000     C          0.202445  
         C75       1.0000    0.37170   0.00240   0.53970   Biso      1.000     C          0.523382  
         C76       1.0000    0.65840   0.71520   0.29970   Biso      1.000     C          0.138182  
         C77       1.0000    0.59910   0.83780   0.30090   Biso      1.000     C          -0.157709           
         C78       1.0000    0.21660   0.90480   0.43570   Biso      1.000     C          0.107902  
         C79       1.0000    0.41980   0.10040   0.30660   Biso      1.000     C          -0.163083           
         C80       1.0000    0.12630   0.02340   0.42980   Biso      1.000     C          -0.210883           
         C81       1.0000    0.12660   0.11280   0.45870   Biso      1.000     C          0.143524  
         C82       1.0000    0.03020   0.24560   0.45600   Biso      1.000     C          0.587356  
         C83       1.0000    0.46230   0.51740   0.30410   Biso      1.000     C          0.636538  
         C84       1.0000    0.35750   0.22300   0.30420   Biso      1.000     C          0.152164  
         H1        1.0000    0.42030   0.05980   0.34670   Biso      1.000     H          0.142963  
         H2        1.0000    0.02910   0.86940   0.41480   Biso      1.000     H          0.140477  
         H3        1.0000    0.42000   0.70100   0.38060   Biso      1.000     H          0.136965  
         H4        1.0000    0.06370   0.04220   0.40560   Biso      1.000     H          0.12831   
         H5        1.0000    0.36810   0.80720   0.47980   Biso      1.000     H          0.136816  
         H6        1.0000    0.59270   0.87880   0.33670   Biso      1.000     H          0.147676  
         H7        1.0000    0.10150   0.86940   0.08520   Biso      1.000     H          0.140949  
         H8        1.0000    0.52850   0.87880   0.16330   Biso      1.000     H          0.145933  
         H9        1.0000    0.89410   0.04220   0.09440   Biso      1.000     H          0.130991  
         H10       1.0000    0.82470   0.80720   0.02020   Biso      1.000     H          0.136353  
         H11       1.0000    0.51990   0.05980   0.15330   Biso      1.000     H          0.143188  
         H12       1.0000    0.97090   0.13060   0.58520   Biso      1.000     H          0.140477  
         H13       1.0000    0.58000   0.29900   0.61940   Biso      1.000     H          0.136965  
         H14       1.0000    0.93630   0.95780   0.59440   Biso      1.000     H          0.128309  
         H15       1.0000    0.63190   0.19280   0.52020   Biso      1.000     H          0.136815  
         H16       1.0000    0.40730   0.12120   0.66330   Biso      1.000     H          0.147678  
         H17       1.0000    0.57970   0.94020   0.65330   Biso      1.000     H          0.142963  
         H18       1.0000    0.12100   0.29900   0.88060   Biso      1.000     H          0.136713  
         H19       1.0000    0.10590   0.95780   0.90560   Biso      1.000     H          0.130992  
         H20       1.0000    0.17530   0.19280   0.97980   Biso      1.000     H          0.136354  
         H21       1.0000    0.47150   0.12120   0.83670   Biso      1.000     H          0.145931  
         H22       1.0000    0.48010   0.94020   0.84670   Biso      1.000     H          0.143187  
         H23       1.0000    0.87900   0.70100   0.11940   Biso      1.000     H          0.136713  
         H24       1.0000    0.89850   0.13060   0.91480   Biso      1.000     H          0.140948  
         Ho1       1.0000    0.76999   0.73928   0.47432   Biso      1.000     Ho          2.034281  
         Ho2       1.0000    0.75311   0.49378   0.75000   Biso      1.000     Ho          1.847299  
         Ho3       1.0000    0.24689   0.50622   0.25000   Biso      1.000     Ho          1.847298  
         Ho4       1.0000    0.21489   0.57022   0.75000   Biso      1.000     Ho          2.092206  
         Ho5       1.0000    0.78511   0.42978   0.25000   Biso      1.000     Ho          2.092206  
         Ho6       1.0000    0.50927   0.26072   0.97432   Biso      1.000     Ho          2.035188  
         Ho7       1.0000    0.23001   0.26072   0.52568   Biso      1.000     Ho          2.034281  
         Ho8       1.0000    0.49073   0.73928   0.02568   Biso      1.000     Ho          2.035188  
         N1        1.0000    0.64250   0.71500   0.75000   Biso      1.000     N          -0.358313           
         N2        1.0000    0.32720   0.34560   0.75000   Biso      1.000     N          -0.376221           
         N3        1.0000    0.35750   0.28500   0.25000   Biso      1.000     N          -0.358313           
         N4        1.0000    0.67280   0.65440   0.25000   Biso      1.000     N          -0.376221           
         N5        1.0000    0.86700   0.36760   0.83060   Biso      1.000     N          -0.356307           
         N6        1.0000    0.30010   0.91140   0.99380   Biso      1.000     N          -0.417145           
         N7        1.0000    0.76540   0.36760   0.66940   Biso      1.000     N          -0.354756           
         N8        1.0000    0.69990   0.08860   0.00620   Biso      1.000     N          -0.417144           
         N9        1.0000    0.13300   0.63240   0.16940   Biso      1.000     N          -0.356307           
         N10       1.0000    0.21150   0.08860   0.49380   Biso      1.000     N          -0.417558           
         N11       1.0000    0.23460   0.63240   0.33060   Biso      1.000     N          -0.354754           
         N12       1.0000    0.78850   0.91140   0.50620   Biso      1.000     N          -0.417557           
         O1        1.0000    0.30890   0.30900   0.59620   Biso      1.000     O          -0.693792           
         O2        1.0000    0.10420   0.22280   0.61800   Biso      1.000     O          -0.655414           
         O3        1.0000    0.55190   0.54820   0.72570   Biso      1.000     O          -0.574314           
         O4        1.0000    0.43060   0.49080   0.69010   Biso      1.000     O          -0.731461           
         O5        1.0000    0.95820   0.68560   0.51120   Biso      1.000     O          -0.718056           
         O6        1.0000    0.04690   0.72220   0.57740   Biso      1.000     O          -0.56993  
         O7        1.0000    0.59670   0.91060   0.46850   Biso      1.000     O          -0.615506           
         O8        1.0000    0.61420   0.08760   0.41960   Biso      1.000     O          -0.528338           
         O9        1.0000    0.22030   0.47340   0.65770   Biso      1.000     O          -0.605784           
         O10       1.0000    0.78190   0.58600   0.64760   Biso      1.000     O          -0.602597           
         O11       1.0000    0.30630   0.47340   0.84230   Biso      1.000     O          -0.60587  
         O12       1.0000    0.68010   0.35120   0.80210   Biso      1.000     O          -0.608786           
         O13       1.0000    0.67300   0.22280   0.88200   Biso      1.000     O          -0.655438           
         O14       1.0000    0.89990   0.54820   0.77430   Biso      1.000     O          -0.570819           
         O15       1.0000    0.07860   0.49080   0.80990   Biso      1.000     O          -0.73037  
         O16       1.0000    0.35620   0.68560   0.98880   Biso      1.000     O          -0.717402           
         O17       1.0000    0.23090   0.72220   0.92260   Biso      1.000     O          -0.569258           
         O18       1.0000    0.49270   0.91060   0.03150   Biso      1.000     O          -0.616133           
         O19       1.0000    0.29820   0.08760   0.08040   Biso      1.000     O          -0.529494           
         O20       1.0000    0.96870   0.35120   0.69790   Biso      1.000     O          -0.607643           
         O21       1.0000    0.38210   0.30900   0.90380   Biso      1.000     O          -0.693834           
         O22       1.0000    0.71280   0.75040   0.58560   Biso      1.000     O          -0.67605  
         O23       1.0000    0.46320   0.24960   0.08560   Biso      1.000     O          -0.676541           
         O24       1.0000    0.10010   0.45180   0.22570   Biso      1.000     O          -0.570819           
         O25       1.0000    0.61790   0.69100   0.09620   Biso      1.000     O          -0.693834           
         O26       1.0000    0.03130   0.64880   0.30210   Biso      1.000     O          -0.607643           
         O27       1.0000    0.89580   0.77720   0.38200   Biso      1.000     O          -0.655414           
         O28       1.0000    0.44810   0.45180   0.27430   Biso      1.000     O          -0.574314           
         O29       1.0000    0.56940   0.50920   0.30990   Biso      1.000     O          -0.731461           
         O30       1.0000    0.04180   0.31440   0.48880   Biso      1.000     O          -0.718056           
         O31       1.0000    0.95310   0.27780   0.42260   Biso      1.000     O          -0.56993  
         O32       1.0000    0.40330   0.08940   0.53150   Biso      1.000     O          -0.615505           
         O33       1.0000    0.38580   0.91240   0.58040   Biso      1.000     O          -0.528338           
         O34       1.0000    0.77970   0.52660   0.34230   Biso      1.000     O          -0.605784           
         O35       1.0000    0.69110   0.69100   0.40380   Biso      1.000     O          -0.693792           
         O36       1.0000    0.21810   0.41400   0.35240   Biso      1.000     O          -0.602597           
         O37       1.0000    0.28720   0.24960   0.41440   Biso      1.000     O          -0.67605  
         O38       1.0000    0.31990   0.64880   0.19790   Biso      1.000     O          -0.608786           
         O39       1.0000    0.32700   0.77720   0.11800   Biso      1.000     O          -0.655438           
         O40       1.0000    0.63210   0.58600   0.85240   Biso      1.000     O          -0.603769           
         O41       1.0000    0.92140   0.50920   0.19010   Biso      1.000     O          -0.73037  
         O42       1.0000    0.64380   0.31440   0.01120   Biso      1.000     O          -0.717402           
         O43       1.0000    0.76910   0.27780   0.07740   Biso      1.000     O          -0.569258           
         O44       1.0000    0.50730   0.08940   0.96850   Biso      1.000     O          -0.616133           
         O45       1.0000    0.70180   0.91240   0.91960   Biso      1.000     O          -0.529494           
         O46       1.0000    0.69370   0.52660   0.15770   Biso      1.000     O          -0.60587  
         O47       1.0000    0.36790   0.41400   0.14760   Biso      1.000     O          -0.603769           
         O48       1.0000    0.53680   0.75040   0.91440   Biso      1.000     O          -0.676541 