
##########################################################################
#               Crystallographic Information Format file
#               Produced by PyCifRW module
#
#  This is a CIF file.  CIF has been adopted by the International
#  Union of Crystallography as the standard for data archiving and
#  transmission.
#
#  For information on this file format, follow the CIF links at
#  http://www.iucr.org
##########################################################################

data_image0

_cell_length_a                          12.1025
_cell_length_b                          12.6805
_cell_length_c                          21.695
_cell_angle_alpha                       82.759
_cell_angle_beta                        74.685
_cell_angle_gamma                       61.4967
_symmetry_space_group_name_H-M          'P 1'
_symmetry_int_tables_number             1
loop_
  _symmetry_equiv_pos_as_xyz
         'x, y, z' 
loop_
  _atom_site_label
  _atom_site_occupancy
  _atom_site_fract_x
  _atom_site_fract_y
  _atom_site_fract_z
  _atom_site_thermal_displace_type
  _atom_site_B_iso_or_equiv
  _atom_site_type_symbol
  _atom_site_charge
         C1        1.0000    0.61660   0.97260   0.47590   Biso      1.000     C          0.509887  
         C2        1.0000    0.53550   0.48100   0.19360   Biso      1.000     C          0.628909  
         C3        1.0000    0.65790   0.37540   0.15970   Biso      1.000     C          0.147058  
         C4        1.0000    0.65660   0.29220   0.12500   Biso      1.000     C          -0.179725           
         C5        1.0000    0.77510   0.19460   0.09790   Biso      1.000     C          0.125166  
         C6        1.0000    0.88910   0.19120   0.10480   Biso      1.000     C          -0.16331199999999998          
         C7        1.0000    0.87880   0.27860   0.14050   Biso      1.000     C          0.14614100000000002           
         C8        1.0000    0.99380   0.28420   0.15300   Biso      1.000     C          0.60578   
         C9        1.0000    0.71880   0.69840   0.13770   Biso      1.000     C          0.628096  
         C10       1.0000    0.28260   0.36460   0.14810   Biso      1.000     C          0.654469  
         C11       1.0000    0.51680   0.90240   0.30560   Biso      1.000     C          -0.168536           
         C12       1.0000    0.58150   0.77900   0.30410   Biso      1.000     C          0.143538  
         C13       1.0000    0.43870   0.16140   0.30090   Biso      1.000     C          -0.148729           
         C14       1.0000    0.37410   0.28580   0.29980   Biso      1.000     C          0.135939  
         C15       1.0000    0.38340   0.02740   0.52410   Biso      1.000     C          0.509887  
         C16       1.0000    0.28210   0.01980   0.49820   Biso      1.000     C          0.18821500000000002           
         C17       1.0000    0.18790   0.11620   0.47370   Biso      1.000     C          -0.197652           
         C18       1.0000    0.12070   0.09740   0.43640   Biso      1.000     C          0.114872  
         C19       1.0000    0.96660   0.75680   0.04400   Biso      1.000     C          0.575659  
         C20       1.0000    0.14800   0.97800   0.43050   Biso      1.000     C          -0.210802           
         C21       1.0000    0.87150   0.88900   0.04140   Biso      1.000     C          0.144582  
         C22       1.0000    0.78190   0.09740   0.06360   Biso      1.000     C          0.11399100000000001           
         C23       1.0000    0.72340   0.24320   0.54400   Biso      1.000     C          0.572412  
         C24       1.0000    0.01650   0.51900   0.69360   Biso      1.000     C          0.631267  
         C25       1.0000    0.03330   0.62460   0.65970   Biso      1.000     C          0.14770899999999998           
         C26       1.0000    0.94880   0.70780   0.62500   Biso      1.000     C          -0.178398           
         C27       1.0000    0.96970   0.80540   0.59790   Biso      1.000     C          0.12265799999999999           
         C28       1.0000    0.08030   0.80880   0.60480   Biso      1.000     C          -0.163201           
         C29       1.0000    0.15740   0.72140   0.64050   Biso      1.000     C          0.14627300000000001           
         C30       1.0000    0.27800   0.71580   0.65300   Biso      1.000     C          0.608584  
         C31       1.0000    0.41720   0.30160   0.63770   Biso      1.000     C          0.62505   
         C32       1.0000    0.64720   0.63540   0.64810   Biso      1.000     C          0.653906  
         C33       1.0000    0.58080   0.90240   0.19440   Biso      1.000     C          -0.169297           
         C34       1.0000    0.63950   0.77900   0.19590   Biso      1.000     C          0.142948  
         C35       1.0000    0.39990   0.16140   0.19910   Biso      1.000     C          -0.148651           
         C36       1.0000    0.34010   0.28580   0.20020   Biso      1.000     C          0.136625  
         C37       1.0000    0.58920   0.02740   0.97590   Biso      1.000     C          0.5089600000000001  
         C38       1.0000    0.69810   0.01980   0.00180   Biso      1.000     C          0.186917  
         C39       1.0000    0.69590   0.11620   0.02630   Biso      1.000     C          -0.197196           
         C40       1.0000    0.87400   0.97800   0.06950   Biso      1.000     C          -0.20712199999999997          
         C41       1.0000    0.23950   0.88900   0.45860   Biso      1.000     C          0.14828   
         C42       1.0000    0.27660   0.75680   0.45600   Biso      1.000     C          0.572411  
         C43       1.0000    0.98350   0.48100   0.30640   Biso      1.000     C          0.631267  
         C44       1.0000    0.34210   0.62460   0.84030   Biso      1.000     C          0.147058  
         C45       1.0000    0.46450   0.51900   0.80640   Biso      1.000     C          0.628909  
         C46       1.0000    0.03340   0.24320   0.95600   Biso      1.000     C          0.575659  
         C47       1.0000    0.12850   0.11100   0.95860   Biso      1.000     C          0.144582  
         C48       1.0000    0.12600   0.02200   0.93050   Biso      1.000     C          -0.207121           
         C49       1.0000    0.21810   0.90260   0.93640   Biso      1.000     C          0.11399100000000001           
         C50       1.0000    0.30410   0.88380   0.97370   Biso      1.000     C          -0.197199           
         C51       1.0000    0.30190   0.98020   0.99820   Biso      1.000     C          0.18692   
         C52       1.0000    0.41080   0.97260   0.02410   Biso      1.000     C          0.5089600000000001  
         C53       1.0000    0.65990   0.71420   0.79980   Biso      1.000     C          0.136621  
         C54       1.0000    0.60010   0.83860   0.80090   Biso      1.000     C          -0.148646           
         C55       1.0000    0.36050   0.22100   0.80410   Biso      1.000     C          0.142948  
         C56       1.0000    0.41920   0.09760   0.80560   Biso      1.000     C          -0.169298           
         C57       1.0000    0.45090   0.09820   0.25000   Biso      1.000     C          0.12121300000000002           
         C58       1.0000    0.51590   0.96820   0.25000   Biso      1.000     C          0.114704  
         C59       1.0000    0.54910   0.90180   0.75000   Biso      1.000     C          0.12120999999999998           
         C60       1.0000    0.48410   0.03180   0.75000   Biso      1.000     C          0.114705  
         C61       1.0000    0.34340   0.70780   0.87500   Biso      1.000     C          -0.179725           
         C62       1.0000    0.22490   0.80540   0.90210   Biso      1.000     C          0.125166  
         C63       1.0000    0.11090   0.80880   0.89520   Biso      1.000     C          -0.16331199999999998          
         C64       1.0000    0.12120   0.72140   0.85950   Biso      1.000     C          0.14614100000000002           
         C65       1.0000    0.96670   0.37540   0.34030   Biso      1.000     C          0.14770899999999998           
         C66       1.0000    0.05120   0.29220   0.37500   Biso      1.000     C          -0.178398           
         C67       1.0000    0.03030   0.19460   0.40210   Biso      1.000     C          0.12265799999999999           
         C68       1.0000    0.91970   0.19120   0.39520   Biso      1.000     C          -0.163201           
         C69       1.0000    0.84260   0.27860   0.35950   Biso      1.000     C          0.14627300000000001           
         C70       1.0000    0.72200   0.28420   0.34700   Biso      1.000     C          0.608584  
         C71       1.0000    0.58280   0.69840   0.36230   Biso      1.000     C          0.62505   
         C72       1.0000    0.35280   0.36460   0.35190   Biso      1.000     C          0.653906  
         C73       1.0000    0.76050   0.11100   0.54140   Biso      1.000     C          0.148273  
         C74       1.0000    0.87930   0.90260   0.56360   Biso      1.000     C          0.114871  
         C75       1.0000    0.71790   0.98020   0.50180   Biso      1.000     C          0.18821500000000002           
         C76       1.0000    0.62590   0.71420   0.70020   Biso      1.000     C          0.135935  
         C77       1.0000    0.56130   0.83860   0.69910   Biso      1.000     C          -0.148722           
         C78       1.0000    0.41850   0.22100   0.69590   Biso      1.000     C          0.143538  
         C79       1.0000    0.48320   0.09760   0.69440   Biso      1.000     C          -0.168537           
         C80       1.0000    0.71740   0.63540   0.85190   Biso      1.000     C          0.65447   
         C81       1.0000    0.28120   0.30160   0.86230   Biso      1.000     C          0.628096  
         C82       1.0000    0.00620   0.71580   0.84700   Biso      1.000     C          0.60578   
         C83       1.0000    0.81210   0.88380   0.52630   Biso      1.000     C          -0.197652           
         C84       1.0000    0.85200   0.02200   0.56950   Biso      1.000     C          -0.210794           
         Dy1       1.0000    0.50848   0.26032   0.47428   Biso      1.000     Dy          2.083525  
         Dy2       1.0000    0.23120   0.26032   0.02572   Biso      1.000     Dy          2.08308   
         Dy3       1.0000    0.49152   0.73968   0.52572   Biso      1.000     Dy          2.083525  
         Dy4       1.0000    0.76880   0.73968   0.97428   Biso      1.000     Dy          2.08308   
         Dy5       1.0000    0.75308   0.49384   0.25000   Biso      1.000     Dy          1.8631419999999999  
         Dy6       1.0000    0.24692   0.50616   0.75000   Biso      1.000     Dy          1.8631419999999999  
         Dy7       1.0000    0.21334   0.57332   0.25000   Biso      1.000     Dy          2.089968  
         Dy8       1.0000    0.78666   0.42668   0.75000   Biso      1.000     Dy          2.089968  
         H1        1.0000    0.59410   0.88000   0.83620   Biso      1.000     H          0.154771  
         H2        1.0000    0.89900   0.12940   0.41480   Biso      1.000     H          0.142517  
         H3        1.0000    0.12190   0.30080   0.38040   Biso      1.000     H          0.139851  
         H4        1.0000    0.10410   0.95900   0.40710   Biso      1.000     H          0.131868  
         H5        1.0000    0.16950   0.19560   0.48200   Biso      1.000     H          0.136601  
         H6        1.0000    0.47410   0.12000   0.33620   Biso      1.000     H          0.155221  
         H7        1.0000    0.97160   0.12940   0.08520   Biso      1.000     H          0.142078  
         H8        1.0000    0.57730   0.30080   0.11960   Biso      1.000     H          0.139971  
         H9        1.0000    0.47300   0.94280   0.34540   Biso      1.000     H          0.140485  
         H10       1.0000    0.63490   0.19560   0.01800   Biso      1.000     H          0.136265  
         H11       1.0000    0.36510   0.80440   0.98200   Biso      1.000     H          0.136265  
         H12       1.0000    0.41580   0.05720   0.84540   Biso      1.000     H          0.141205  
         H13       1.0000    0.06310   0.04100   0.90710   Biso      1.000     H          0.13030999999999998           
         H14       1.0000    0.42270   0.69920   0.88040   Biso      1.000     H          0.139971  
         H15       1.0000    0.93690   0.95900   0.09290   Biso      1.000     H          0.13030999999999998           
         H16       1.0000    0.52700   0.05720   0.65460   Biso      1.000     H          0.140485  
         H17       1.0000    0.52590   0.88000   0.66380   Biso      1.000     H          0.15522   
         H18       1.0000    0.02840   0.87060   0.91480   Biso      1.000     H          0.142077  
         H19       1.0000    0.89590   0.04100   0.59290   Biso      1.000     H          0.131867  
         H20       1.0000    0.87810   0.69920   0.61960   Biso      1.000     H          0.139851  
         H21       1.0000    0.10100   0.87060   0.58520   Biso      1.000     H          0.142517  
         H22       1.0000    0.58420   0.94280   0.15460   Biso      1.000     H          0.141205  
         H23       1.0000    0.40590   0.12000   0.16380   Biso      1.000     H          0.154771  
         H24       1.0000    0.83050   0.80440   0.51800   Biso      1.000     H          0.136601  
         N1        1.0000    0.21240   0.08800   0.99370   Biso      1.000     N          -0.38005700000000003          
         N2        1.0000    0.35830   0.28340   0.75000   Biso      1.000     N          -0.349186           
         N3        1.0000    0.67250   0.65500   0.75000   Biso      1.000     N          -0.381694           
         N4        1.0000    0.64170   0.71660   0.25000   Biso      1.000     N          -0.349186           
         N5        1.0000    0.32750   0.34500   0.25000   Biso      1.000     N          -0.381695           
         N6        1.0000    0.23440   0.63260   0.83160   Biso      1.000     N          -0.342953           
         N7        1.0000    0.30040   0.91200   0.49370   Biso      1.000     N          -0.38301199999999996          
         N8        1.0000    0.13300   0.63260   0.66840   Biso      1.000     N          -0.344602           
         N9        1.0000    0.78760   0.91200   0.00630   Biso      1.000     N          -0.38005700000000003          
         N10       1.0000    0.76560   0.36740   0.16840   Biso      1.000     N          -0.342953           
         N11       1.0000    0.86700   0.36740   0.33160   Biso      1.000     N          -0.344602           
         N12       1.0000    0.69960   0.08800   0.50630   Biso      1.000     N          -0.383011           
         O1        1.0000    0.32550   0.77820   0.61850   Biso      1.000     O          -0.6459090000000001           
         O2        1.0000    0.10010   0.45180   0.72470   Biso      1.000     O          -0.6239560000000001           
         O3        1.0000    0.92330   0.50620   0.68900   Biso      1.000     O          -0.698535           
         O4        1.0000    0.64670   0.31460   0.51020   Biso      1.000     O          -0.700901           
         O5        1.0000    0.77350   0.27500   0.57660   Biso      1.000     O          -0.5849260000000001           
         O6        1.0000    0.58890   0.05420   0.43050   Biso      1.000     O          -0.589145           
         O7        1.0000    0.56850   0.89500   0.49730   Biso      1.000     O          -0.5820930000000001           
         O8        1.0000    0.69460   0.52540   0.65780   Biso      1.000     O          -0.616784           
         O9        1.0000    0.61820   0.69020   0.59710   Biso      1.000     O          -0.681937           
         O10       1.0000    0.37070   0.41160   0.64760   Biso      1.000     O          -0.620845           
         O11       1.0000    0.89630   0.77820   0.88150   Biso      1.000     O          -0.645256           
         O12       1.0000    0.03160   0.64880   0.80170   Biso      1.000     O          -0.600543           
         O13       1.0000    0.44810   0.45180   0.77530   Biso      1.000     O          -0.62238  
         O14       1.0000    0.57050   0.50620   0.81100   Biso      1.000     O          -0.698046           
         O15       1.0000    0.03870   0.31460   0.98980   Biso      1.000     O          -0.703184           
         O16       1.0000    0.95150   0.27500   0.92340   Biso      1.000     O          -0.585124           
         O17       1.0000    0.35690   0.05420   0.06950   Biso      1.000     O          -0.5884729999999999           
         O18       1.0000    0.69160   0.69020   0.90290   Biso      1.000     O          -0.682048           
         O19       1.0000    0.53650   0.89500   0.00270   Biso      1.000     O          -0.582118           
         O20       1.0000    0.78000   0.52540   0.84220   Biso      1.000     O          -0.617462           
         O21       1.0000    0.31960   0.64880   0.69830   Biso      1.000     O          -0.602405           
         O22       1.0000    0.46440   0.24820   0.58660   Biso      1.000     O          -0.665508           
         O23       1.0000    0.71260   0.75180   0.08660   Biso      1.000     O          -0.6665409999999999           
         O24       1.0000    0.89990   0.54820   0.27530   Biso      1.000     O          -0.6239560000000001           
         O25       1.0000    0.30840   0.30980   0.09710   Biso      1.000     O          -0.682048           
         O26       1.0000    0.21770   0.41160   0.85240   Biso      1.000     O          -0.622424           
         O27       1.0000    0.68040   0.35120   0.30170   Biso      1.000     O          -0.602405           
         O28       1.0000    0.67450   0.22180   0.38150   Biso      1.000     O          -0.6459090000000001           
         O29       1.0000    0.07670   0.49380   0.31100   Biso      1.000     O          -0.698535           
         O30       1.0000    0.35330   0.68540   0.48980   Biso      1.000     O          -0.700901           
         O31       1.0000    0.22650   0.72500   0.42340   Biso      1.000     O          -0.5849260000000001           
         O32       1.0000    0.41110   0.94580   0.56950   Biso      1.000     O          -0.589144           
         O33       1.0000    0.43150   0.10500   0.50270   Biso      1.000     O          -0.5820930000000001           
         O34       1.0000    0.30540   0.47460   0.34220   Biso      1.000     O          -0.616784           
         O35       1.0000    0.38180   0.30980   0.40290   Biso      1.000     O          -0.681937           
         O36       1.0000    0.62930   0.58840   0.35240   Biso      1.000     O          -0.620845           
         O37       1.0000    0.53560   0.75180   0.41340   Biso      1.000     O          -0.665508           
         O38       1.0000    0.96840   0.35120   0.19830   Biso      1.000     O          -0.600543           
         O39       1.0000    0.10370   0.22180   0.11850   Biso      1.000     O          -0.645256           
         O40       1.0000    0.55190   0.54820   0.22470   Biso      1.000     O          -0.62238  
         O41       1.0000    0.42950   0.49380   0.18900   Biso      1.000     O          -0.698046           
         O42       1.0000    0.96130   0.68540   0.01020   Biso      1.000     O          -0.703184           
         O43       1.0000    0.04850   0.72500   0.07660   Biso      1.000     O          -0.585124           
         O44       1.0000    0.64310   0.94580   0.93050   Biso      1.000     O          -0.5884729999999999           
         O45       1.0000    0.46350   0.10500   0.99730   Biso      1.000     O          -0.582118           
         O46       1.0000    0.22000   0.47460   0.15780   Biso      1.000     O          -0.617462           
         O47       1.0000    0.78230   0.58840   0.14760   Biso      1.000     O          -0.622424           
         O48       1.0000    0.28740   0.24820   0.91340   Biso      1.000     O          -0.6665409999999999 