
##########################################################################
#               Crystallographic Information Format file
#               Produced by PyCifRW module
#
#  This is a CIF file.  CIF has been adopted by the International
#  Union of Crystallography as the standard for data archiving and
#  transmission.
#
#  For information on this file format, follow the CIF links at
#  http://www.iucr.org
##########################################################################

data_image0

_cell_length_a                          12.1025
_cell_length_b                          12.6805
_cell_length_c                          21.695
_cell_angle_alpha                       82.759
_cell_angle_beta                        74.685
_cell_angle_gamma                       61.4967
_symmetry_space_group_name_H-M          'P 1'
_symmetry_int_tables_number             1
loop_
  _symmetry_equiv_pos_as_xyz
         'x, y, z' 
loop_
  _atom_site_label
  _atom_site_occupancy
  _atom_site_fract_x
  _atom_site_fract_y
  _atom_site_fract_z
  _atom_site_thermal_displace_type
  _atom_site_B_iso_or_equiv
  _atom_site_type_symbol
  _atom_site_charge
         C1        1.0000    0.62040   0.96980   0.47380   Biso      1.000     C          0.526885  
         C2        1.0000    0.53590   0.48080   0.19350   Biso      1.000     C          0.628426  
         C3        1.0000    0.65780   0.37480   0.15980   Biso      1.000     C          0.147731  
         C4        1.0000    0.65760   0.29200   0.12460   Biso      1.000     C          -0.178789           
         C5        1.0000    0.77480   0.19500   0.09760   Biso      1.000     C          0.1264    
         C6        1.0000    0.88910   0.19060   0.10480   Biso      1.000     C          -0.164326           
         C7        1.0000    0.87880   0.27820   0.14080   Biso      1.000     C          0.146309  
         C8        1.0000    0.99350   0.28440   0.15310   Biso      1.000     C          0.605991  
         C9        1.0000    0.71850   0.69920   0.13820   Biso      1.000     C          0.622397  
         C10       1.0000    0.28360   0.36280   0.14790   Biso      1.000     C          0.654169  
         C11       1.0000    0.51750   0.90180   0.30630   Biso      1.000     C          -0.16653  
         C12       1.0000    0.58090   0.77800   0.30400   Biso      1.000     C          0.146925  
         C13       1.0000    0.43760   0.16120   0.30180   Biso      1.000     C          -0.148568           
         C14       1.0000    0.37370   0.28560   0.29980   Biso      1.000     C          0.135627  
         C15       1.0000    0.37960   0.03020   0.52620   Biso      1.000     C          0.526885  
         C16       1.0000    0.28020   0.02080   0.49900   Biso      1.000     C          0.188142  
         C17       1.0000    0.18730   0.11640   0.47360   Biso      1.000     C          -0.198909           
         C18       1.0000    0.12070   0.09740   0.43650   Biso      1.000     C          0.115913  
         C19       1.0000    0.96750   0.75700   0.04400   Biso      1.000     C          0.576412  
         C20       1.0000    0.14930   0.97820   0.43000   Biso      1.000     C          -0.208357           
         C21       1.0000    0.87190   0.88840   0.04100   Biso      1.000     C          0.146867  
         C22       1.0000    0.78190   0.09740   0.06350   Biso      1.000     C          0.11512   
         C23       1.0000    0.72450   0.24300   0.54400   Biso      1.000     C          0.574239  
         C24       1.0000    0.01670   0.51920   0.69350   Biso      1.000     C          0.631961  
         C25       1.0000    0.03260   0.62520   0.65980   Biso      1.000     C          0.149256  
         C26       1.0000    0.94960   0.70800   0.62460   Biso      1.000     C          -0.176768           
         C27       1.0000    0.96980   0.80500   0.59760   Biso      1.000     C          0.123501  
         C28       1.0000    0.07970   0.80940   0.60480   Biso      1.000     C          -0.164094           
         C29       1.0000    0.15700   0.72180   0.64080   Biso      1.000     C          0.146137  
         C30       1.0000    0.27790   0.71560   0.65310   Biso      1.000     C          0.609952  
         C31       1.0000    0.41770   0.30080   0.63820   Biso      1.000     C          0.619717  
         C32       1.0000    0.64640   0.63720   0.64790   Biso      1.000     C          0.653474  
         C33       1.0000    0.58070   0.90180   0.19370   Biso      1.000     C          -0.166435           
         C34       1.0000    0.64110   0.77800   0.19600   Biso      1.000     C          0.146479  
         C35       1.0000    0.40120   0.16120   0.19820   Biso      1.000     C          -0.149494           
         C36       1.0000    0.34070   0.28560   0.20020   Biso      1.000     C          0.1362    
         C37       1.0000    0.59020   0.03020   0.97380   Biso      1.000     C          0.526046  
         C38       1.0000    0.69900   0.02080   0.00100   Biso      1.000     C          0.187584  
         C39       1.0000    0.69630   0.11640   0.02640   Biso      1.000     C          -0.199387           
         C40       1.0000    0.87250   0.97820   0.07000   Biso      1.000     C          -0.207067           
         C41       1.0000    0.23970   0.88840   0.45900   Biso      1.000     C          0.148112  
         C42       1.0000    0.27550   0.75700   0.45600   Biso      1.000     C          0.574239  
         C43       1.0000    0.98330   0.48080   0.30650   Biso      1.000     C          0.631961  
         C44       1.0000    0.34220   0.62520   0.84020   Biso      1.000     C          0.14773   
         C45       1.0000    0.46410   0.51920   0.80650   Biso      1.000     C          0.628426  
         C46       1.0000    0.03250   0.24300   0.95600   Biso      1.000     C          0.576412  
         C47       1.0000    0.12810   0.11160   0.95900   Biso      1.000     C          0.146867  
         C48       1.0000    0.12750   0.02180   0.93000   Biso      1.000     C          -0.207067           
         C49       1.0000    0.21810   0.90260   0.93650   Biso      1.000     C          0.11512   
         C50       1.0000    0.30370   0.88360   0.97360   Biso      1.000     C          -0.199387           
         C51       1.0000    0.30100   0.97920   0.99900   Biso      1.000     C          0.187584  
         C52       1.0000    0.40980   0.96980   0.02620   Biso      1.000     C          0.526046  
         C53       1.0000    0.65930   0.71440   0.79980   Biso      1.000     C          0.1362    
         C54       1.0000    0.59880   0.83880   0.80180   Biso      1.000     C          -0.149494           
         C55       1.0000    0.35890   0.22200   0.80400   Biso      1.000     C          0.146479  
         C56       1.0000    0.41930   0.09820   0.80630   Biso      1.000     C          -0.166435           
         C57       1.0000    0.45100   0.09800   0.25000   Biso      1.000     C          0.119852  
         C58       1.0000    0.51650   0.96700   0.25000   Biso      1.000     C          0.109709  
         C59       1.0000    0.54900   0.90200   0.75000   Biso      1.000     C          0.119853  
         C60       1.0000    0.48350   0.03300   0.75000   Biso      1.000     C          0.109707  
         C61       1.0000    0.34240   0.70800   0.87540   Biso      1.000     C          -0.178789           
         C62       1.0000    0.22520   0.80500   0.90240   Biso      1.000     C          0.1264    
         C63       1.0000    0.11090   0.80940   0.89520   Biso      1.000     C          -0.164326           
         C64       1.0000    0.12120   0.72180   0.85920   Biso      1.000     C          0.146308  
         C65       1.0000    0.96740   0.37480   0.34020   Biso      1.000     C          0.149256  
         C66       1.0000    0.05040   0.29200   0.37540   Biso      1.000     C          -0.176768           
         C67       1.0000    0.03020   0.19500   0.40240   Biso      1.000     C          0.1235    
         C68       1.0000    0.92030   0.19060   0.39520   Biso      1.000     C          -0.164094           
         C69       1.0000    0.84300   0.27820   0.35920   Biso      1.000     C          0.146137  
         C70       1.0000    0.72210   0.28440   0.34690   Biso      1.000     C          0.609952  
         C71       1.0000    0.58230   0.69920   0.36180   Biso      1.000     C          0.619717  
         C72       1.0000    0.35360   0.36280   0.35210   Biso      1.000     C          0.653474  
         C73       1.0000    0.76030   0.11160   0.54100   Biso      1.000     C          0.148108  
         C74       1.0000    0.87930   0.90260   0.56350   Biso      1.000     C          0.115913  
         C75       1.0000    0.71980   0.97920   0.50100   Biso      1.000     C          0.188142  
         C76       1.0000    0.62630   0.71440   0.70020   Biso      1.000     C          0.135627  
         C77       1.0000    0.56240   0.83880   0.69820   Biso      1.000     C          -0.148568           
         C78       1.0000    0.41910   0.22200   0.69600   Biso      1.000     C          0.146925  
         C79       1.0000    0.48250   0.09820   0.69370   Biso      1.000     C          -0.166529           
         C80       1.0000    0.71640   0.63720   0.85210   Biso      1.000     C          0.654169  
         C81       1.0000    0.28150   0.30080   0.86180   Biso      1.000     C          0.622397  
         C82       1.0000    0.00650   0.71560   0.84690   Biso      1.000     C          0.605991  
         C83       1.0000    0.81270   0.88360   0.52640   Biso      1.000     C          -0.198909           
         C84       1.0000    0.85070   0.02180   0.57000   Biso      1.000     C          -0.208353           
         Dy1       1.0000    0.50849   0.26034   0.47429   Biso      1.000     Dy          2.092413  
         Dy2       1.0000    0.23117   0.26034   0.02571   Biso      1.000     Dy          2.091527  
         Dy3       1.0000    0.49151   0.73966   0.52571   Biso      1.000     Dy          2.092413  
         Dy4       1.0000    0.76883   0.73966   0.97429   Biso      1.000     Dy          2.091527  
         Dy5       1.0000    0.75306   0.49388   0.25000   Biso      1.000     Dy          1.858198  
         Dy6       1.0000    0.24694   0.50612   0.75000   Biso      1.000     Dy          1.858198  
         Dy7       1.0000    0.21336   0.57328   0.25000   Biso      1.000     Dy          2.090046  
         Dy8       1.0000    0.78664   0.42672   0.75000   Biso      1.000     Dy          2.090046  
         H1        1.0000    0.59160   0.87980   0.83760   Biso      1.000     H          0.155174  
         H2        1.0000    0.90010   0.12860   0.41470   Biso      1.000     H          0.142964  
         H3        1.0000    0.12070   0.30060   0.38130   Biso      1.000     H          0.13759   
         H4        1.0000    0.10640   0.95940   0.40550   Biso      1.000     H          0.128819  
         H5        1.0000    0.16850   0.19600   0.48150   Biso      1.000     H          0.136273  
         H6        1.0000    0.47140   0.12020   0.33760   Biso      1.000     H          0.155223  
         H7        1.0000    0.97130   0.12860   0.08530   Biso      1.000     H          0.142292  
         H8        1.0000    0.57870   0.30060   0.11870   Biso      1.000     H          0.139155  
         H9        1.0000    0.47470   0.94220   0.34620   Biso      1.000     H          0.145409  
         H10       1.0000    0.63550   0.19600   0.01850   Biso      1.000     H          0.136616  
         H11       1.0000    0.36450   0.80400   0.98150   Biso      1.000     H          0.136615  
         H12       1.0000    0.41690   0.05780   0.84620   Biso      1.000     H          0.145154  
         H13       1.0000    0.06580   0.04060   0.90550   Biso      1.000     H          0.128174  
         H14       1.0000    0.42130   0.69940   0.88130   Biso      1.000     H          0.139156  
         H15       1.0000    0.93420   0.95940   0.09450   Biso      1.000     H          0.128174  
         H16       1.0000    0.52530   0.05780   0.65380   Biso      1.000     H          0.145409  
         H17       1.0000    0.52860   0.87980   0.66240   Biso      1.000     H          0.155223  
         H18       1.0000    0.02870   0.87140   0.91470   Biso      1.000     H          0.142292  
         H19       1.0000    0.89360   0.04060   0.59450   Biso      1.000     H          0.128819  
         H20       1.0000    0.87930   0.69940   0.61870   Biso      1.000     H          0.13759   
         H21       1.0000    0.09990   0.87140   0.58530   Biso      1.000     H          0.142964  
         H22       1.0000    0.58310   0.94220   0.15380   Biso      1.000     H          0.145154  
         H23       1.0000    0.40840   0.12020   0.16240   Biso      1.000     H          0.155174  
         H24       1.0000    0.83150   0.80400   0.51850   Biso      1.000     H          0.136273  
         N1        1.0000    0.21230   0.08840   0.99360   Biso      1.000     N          -0.380467           
         N2        1.0000    0.35810   0.28380   0.75000   Biso      1.000     N          -0.345133           
         N3        1.0000    0.67240   0.65520   0.75000   Biso      1.000     N          -0.375905           
         N4        1.0000    0.64190   0.71620   0.25000   Biso      1.000     N          -0.345133           
         N5        1.0000    0.32760   0.34480   0.25000   Biso      1.000     N          -0.375905           
         N6        1.0000    0.23440   0.63260   0.83150   Biso      1.000     N          -0.343499           
         N7        1.0000    0.30070   0.91160   0.49360   Biso      1.000     N          -0.381143           
         N8        1.0000    0.13300   0.63260   0.66850   Biso      1.000     N          -0.345218           
         N9        1.0000    0.78770   0.91160   0.00640   Biso      1.000     N          -0.380467           
         N10       1.0000    0.76560   0.36740   0.16850   Biso      1.000     N          -0.343499           
         N11       1.0000    0.86700   0.36740   0.33150   Biso      1.000     N          -0.345218           
         N12       1.0000    0.69930   0.08840   0.50640   Biso      1.000     N          -0.381142           
         O1        1.0000    0.32580   0.77820   0.61870   Biso      1.000     O          -0.649435           
         O2        1.0000    0.10020   0.45160   0.72470   Biso      1.000     O          -0.625544           
         O3        1.0000    0.92360   0.50620   0.68910   Biso      1.000     O          -0.69852  
         O4        1.0000    0.64700   0.31480   0.51010   Biso      1.000     O          -0.708112           
         O5        1.0000    0.77250   0.27500   0.57690   Biso      1.000     O          -0.574716           
         O6        1.0000    0.60350   0.04640   0.42490   Biso      1.000     O          -0.579166           
         O7        1.0000    0.56640   0.89520   0.49800   Biso      1.000     O          -0.619825           
         O8        1.0000    0.69460   0.52540   0.65780   Biso      1.000     O          -0.628564           
         O9        1.0000    0.61820   0.69040   0.59710   Biso      1.000     O          -0.67459  
         O10       1.0000    0.37060   0.41200   0.64750   Biso      1.000     O          -0.618749           
         O11       1.0000    0.89600   0.77820   0.88130   Biso      1.000     O          -0.648201           
         O12       1.0000    0.03140   0.64960   0.80160   Biso      1.000     O          -0.596092           
         O13       1.0000    0.44820   0.45160   0.77530   Biso      1.000     O          -0.62321  
         O14       1.0000    0.57020   0.50620   0.81090   Biso      1.000     O          -0.697587           
         O15       1.0000    0.03820   0.31480   0.98990   Biso      1.000     O          -0.71042  
         O16       1.0000    0.95250   0.27500   0.92310   Biso      1.000     O          -0.573937           
         O17       1.0000    0.35010   0.04640   0.07510   Biso      1.000     O          -0.578915           
         O18       1.0000    0.69140   0.69040   0.90290   Biso      1.000     O          -0.674143           
         O19       1.0000    0.53840   0.89520   0.00200   Biso      1.000     O          -0.618787           
         O20       1.0000    0.78000   0.52540   0.84220   Biso      1.000     O          -0.629528           
         O21       1.0000    0.31900   0.64960   0.69840   Biso      1.000     O          -0.598761           
         O22       1.0000    0.46430   0.24820   0.58590   Biso      1.000     O          -0.671497           
         O23       1.0000    0.71250   0.75180   0.08590   Biso      1.000     O          -0.67256  
         O24       1.0000    0.89980   0.54840   0.27530   Biso      1.000     O          -0.625544           
         O25       1.0000    0.30860   0.30960   0.09710   Biso      1.000     O          -0.674143           
         O26       1.0000    0.21740   0.41200   0.85250   Biso      1.000     O          -0.619613           
         O27       1.0000    0.68100   0.35040   0.30160   Biso      1.000     O          -0.598761           
         O28       1.0000    0.67420   0.22180   0.38130   Biso      1.000     O          -0.649435           
         O29       1.0000    0.07640   0.49380   0.31090   Biso      1.000     O          -0.69852  
         O30       1.0000    0.35300   0.68520   0.48990   Biso      1.000     O          -0.708112           
         O31       1.0000    0.22750   0.72500   0.42310   Biso      1.000     O          -0.574716           
         O32       1.0000    0.39650   0.95360   0.57510   Biso      1.000     O          -0.579166           
         O33       1.0000    0.43360   0.10480   0.50200   Biso      1.000     O          -0.619825           
         O34       1.0000    0.30540   0.47460   0.34220   Biso      1.000     O          -0.628564           
         O35       1.0000    0.38180   0.30960   0.40290   Biso      1.000     O          -0.67459  
         O36       1.0000    0.62940   0.58800   0.35250   Biso      1.000     O          -0.618749           
         O37       1.0000    0.53570   0.75180   0.41410   Biso      1.000     O          -0.671497           
         O38       1.0000    0.96860   0.35040   0.19840   Biso      1.000     O          -0.596092           
         O39       1.0000    0.10400   0.22180   0.11870   Biso      1.000     O          -0.648201           
         O40       1.0000    0.55180   0.54840   0.22470   Biso      1.000     O          -0.62321  
         O41       1.0000    0.42980   0.49380   0.18910   Biso      1.000     O          -0.697587           
         O42       1.0000    0.96180   0.68520   0.01010   Biso      1.000     O          -0.71042  
         O43       1.0000    0.04750   0.72500   0.07690   Biso      1.000     O          -0.573936           
         O44       1.0000    0.64990   0.95360   0.92490   Biso      1.000     O          -0.578915           
         O45       1.0000    0.46160   0.10480   0.99800   Biso      1.000     O          -0.618787           
         O46       1.0000    0.22000   0.47460   0.15780   Biso      1.000     O          -0.629528           
         O47       1.0000    0.78260   0.58800   0.14750   Biso      1.000     O          -0.619613           
         O48       1.0000    0.28750   0.24820   0.91410   Biso      1.000     O          -0.67256 