
##########################################################################
#               Crystallographic Information Format file
#               Produced by PyCifRW module
#
#  This is a CIF file.  CIF has been adopted by the International
#  Union of Crystallography as the standard for data archiving and
#  transmission.
#
#  For information on this file format, follow the CIF links at
#  http://www.iucr.org
##########################################################################

data_image0

_cell_length_a                          12.126
_cell_length_b                          12.6787
_cell_length_c                          21.568
_cell_angle_alpha                       82.7587
_cell_angle_beta                        74.717
_cell_angle_gamma                       61.4318
_symmetry_space_group_name_H-M          'P 1'
_symmetry_int_tables_number             1
loop_
  _symmetry_equiv_pos_as_xyz
         'x, y, z' 
loop_
  _atom_site_label
  _atom_site_occupancy
  _atom_site_fract_x
  _atom_site_fract_y
  _atom_site_fract_z
  _atom_site_thermal_displace_type
  _atom_site_B_iso_or_equiv
  _atom_site_type_symbol
  _atom_site_charge
         C1        1.0000    0.62960   0.00000   0.45820   Biso      1.000     C          0.523365  
         C2        1.0000    0.65870   0.28980   0.62530   Biso      1.000     C          -0.17586  
         C3        1.0000    0.77720   0.19120   0.59840   Biso      1.000     C          0.132552  
         C4        1.0000    0.88840   0.19120   0.60520   Biso      1.000     C          -0.170035           
         C5        1.0000    0.87840   0.27900   0.64010   Biso      1.000     C          0.145645  
         C6        1.0000    0.99530   0.28300   0.65220   Biso      1.000     C          0.622084  
         C7        1.0000    0.72130   0.69540   0.63860   Biso      1.000     C          0.626267  
         C8        1.0000    0.28270   0.36260   0.64770   Biso      1.000     C          0.654241  
         C9        1.0000    0.47940   0.10120   0.19410   Biso      1.000     C          -0.162448           
         C10       1.0000    0.41860   0.22280   0.19610   Biso      1.000     C          0.155272  
         C11       1.0000    0.56210   0.83780   0.20000   Biso      1.000     C          -0.157041           
         C12       1.0000    0.62610   0.71580   0.20070   Biso      1.000     C          0.14166   
         C13       1.0000    0.62960   0.00000   0.95820   Biso      1.000     C          0.524047  
         C14       1.0000    0.71930   0.98140   0.00150   Biso      1.000     C          0.193403  
         C15       1.0000    0.81040   0.88520   0.02660   Biso      1.000     C          -0.179438           
         C16       1.0000    0.87920   0.90420   0.06400   Biso      1.000     C          0.108805  
         C17       1.0000    0.85020   0.02360   0.07030   Biso      1.000     C          -0.212331           
         C18       1.0000    0.76030   0.11340   0.04140   Biso      1.000     C          0.142534  
         C19       1.0000    0.72470   0.24660   0.04300   Biso      1.000     C          0.58945   
         C20       1.0000    0.02020   0.51760   0.19560   Biso      1.000     C          0.628052  
         C21       1.0000    0.03210   0.62580   0.15970   Biso      1.000     C          0.14633   
         C22       1.0000    0.94850   0.71020   0.12530   Biso      1.000     C          -0.174069           
         C23       1.0000    0.96840   0.80880   0.09840   Biso      1.000     C          0.131342  
         C24       1.0000    0.07960   0.80880   0.10520   Biso      1.000     C          -0.172356           
         C25       1.0000    0.65790   0.37420   0.65970   Biso      1.000     C          0.147385  
         C26       1.0000    0.15740   0.72100   0.14010   Biso      1.000     C          0.146263  
         C27       1.0000    0.53780   0.48240   0.69560   Biso      1.000     C          0.632524  
         C28       1.0000    0.87370   0.88660   0.54140   Biso      1.000     C          0.143408  
         C29       1.0000    0.18960   0.11480   0.97340   Biso      1.000     C          -0.179451           
         C30       1.0000    0.12080   0.09580   0.93600   Biso      1.000     C          0.108807  
         C31       1.0000    0.14980   0.97640   0.92970   Biso      1.000     C          -0.212331           
         C32       1.0000    0.23970   0.88660   0.95860   Biso      1.000     C          0.142534  
         C33       1.0000    0.27530   0.75340   0.95700   Biso      1.000     C          0.58945   
         C34       1.0000    0.97980   0.48240   0.80440   Biso      1.000     C          0.628052  
         C35       1.0000    0.96790   0.37420   0.84030   Biso      1.000     C          0.14633   
         C36       1.0000    0.05150   0.28980   0.87470   Biso      1.000     C          -0.174069           
         C37       1.0000    0.03160   0.19120   0.90160   Biso      1.000     C          0.131342  
         C38       1.0000    0.92040   0.19120   0.89480   Biso      1.000     C          -0.172356           
         C39       1.0000    0.84260   0.27900   0.85990   Biso      1.000     C          0.146263  
         C40       1.0000    0.72170   0.28300   0.84780   Biso      1.000     C          0.624226  
         C41       1.0000    0.58330   0.69540   0.86140   Biso      1.000     C          0.625462  
         C42       1.0000    0.35470   0.36260   0.85230   Biso      1.000     C          0.652053  
         C43       1.0000    0.58060   0.89880   0.69410   Biso      1.000     C          -0.163944           
         C44       1.0000    0.64140   0.77720   0.69610   Biso      1.000     C          0.156542  
         C45       1.0000    0.39990   0.16220   0.70000   Biso      1.000     C          -0.161805           
         C46       1.0000    0.34190   0.28420   0.70070   Biso      1.000     C          0.142979  
         C47       1.0000    0.37390   0.28420   0.79930   Biso      1.000     C          0.141643  
         C48       1.0000    0.70070   0.01860   0.50150   Biso      1.000     C          0.195328  
         C49       1.0000    0.69560   0.11480   0.52660   Biso      1.000     C          -0.178851           
         C50       1.0000    0.78340   0.09580   0.56400   Biso      1.000     C          0.107236  
         C51       1.0000    0.87380   0.97640   0.57030   Biso      1.000     C          -0.210003           
         C52       1.0000    0.97130   0.75340   0.54300   Biso      1.000     C          0.585812  
         C53       1.0000    0.27830   0.71700   0.15220   Biso      1.000     C          0.624226  
         C54       1.0000    0.41670   0.30460   0.13860   Biso      1.000     C          0.625462  
         C55       1.0000    0.64530   0.63740   0.14770   Biso      1.000     C          0.652051  
         C56       1.0000    0.51880   0.96240   0.75000   Biso      1.000     C          0.112561  
         C57       1.0000    0.45120   0.09760   0.75000   Biso      1.000     C          0.129766  
         C58       1.0000    0.48120   0.03760   0.25000   Biso      1.000     C          0.112559  
         C59       1.0000    0.54880   0.90240   0.25000   Biso      1.000     C          0.129762  
         C60       1.0000    0.52060   0.89880   0.80590   Biso      1.000     C          -0.162442           
         C61       1.0000    0.58140   0.77720   0.80390   Biso      1.000     C          0.155272  
         C62       1.0000    0.43790   0.16220   0.80000   Biso      1.000     C          -0.15702  
         C63       1.0000    0.28070   0.01860   0.99850   Biso      1.000     C          0.193415  
         C64       1.0000    0.71730   0.63740   0.35230   Biso      1.000     C          0.654242  
         C65       1.0000    0.27870   0.30460   0.36140   Biso      1.000     C          0.626267  
         C66       1.0000    0.00470   0.71700   0.34780   Biso      1.000     C          0.622085  
         C67       1.0000    0.12160   0.72100   0.35990   Biso      1.000     C          0.145635  
         C68       1.0000    0.11160   0.80880   0.39480   Biso      1.000     C          -0.170025           
         C69       1.0000    0.22280   0.80880   0.40160   Biso      1.000     C          0.132551  
         C70       1.0000    0.37040   0.00000   0.04180   Biso      1.000     C          0.524046  
         C71       1.0000    0.34210   0.62580   0.34030   Biso      1.000     C          0.147381  
         C72       1.0000    0.34130   0.71020   0.37470   Biso      1.000     C          -0.175855           
         C73       1.0000    0.30440   0.88520   0.47340   Biso      1.000     C          -0.17886  
         C74       1.0000    0.29930   0.98140   0.49850   Biso      1.000     C          0.195336  
         C75       1.0000    0.37040   0.00000   0.54180   Biso      1.000     C          0.523364  
         C76       1.0000    0.65810   0.71580   0.29930   Biso      1.000     C          0.142961  
         C77       1.0000    0.60010   0.83780   0.30000   Biso      1.000     C          -0.161778           
         C78       1.0000    0.21660   0.90420   0.43600   Biso      1.000     C          0.107237  
         C79       1.0000    0.41940   0.10120   0.30590   Biso      1.000     C          -0.163936           
         C80       1.0000    0.12620   0.02360   0.42970   Biso      1.000     C          -0.210008           
         C81       1.0000    0.12630   0.11340   0.45860   Biso      1.000     C          0.143412  
         C82       1.0000    0.02870   0.24660   0.45700   Biso      1.000     C          0.585812  
         C83       1.0000    0.46220   0.51760   0.30440   Biso      1.000     C          0.632524  
         C84       1.0000    0.35860   0.22280   0.30390   Biso      1.000     C          0.156541  
         H1        1.0000    0.41820   0.06060   0.34610   Biso      1.000     H          0.140518  
         H2        1.0000    0.02890   0.87000   0.41440   Biso      1.000     H          0.140191  
         H3        1.0000    0.42000   0.70220   0.38040   Biso      1.000     H          0.138712  
         H4        1.0000    0.06420   0.04220   0.40520   Biso      1.000     H          0.128844  
         H5        1.0000    0.36620   0.80600   0.48100   Biso      1.000     H          0.139494  
         H6        1.0000    0.59470   0.87840   0.33560   Biso      1.000     H          0.145744  
         H7        1.0000    0.10110   0.87000   0.08560   Biso      1.000     H          0.140274  
         H8        1.0000    0.52690   0.87840   0.16440   Biso      1.000     H          0.143904  
         H9        1.0000    0.89360   0.04220   0.09480   Biso      1.000     H          0.13152   
         H10       1.0000    0.82780   0.80600   0.01900   Biso      1.000     H          0.139931  
         H11       1.0000    0.52120   0.06060   0.15390   Biso      1.000     H          0.140152  
         H12       1.0000    0.97110   0.13000   0.58560   Biso      1.000     H          0.140192  
         H13       1.0000    0.58000   0.29780   0.61960   Biso      1.000     H          0.138712  
         H14       1.0000    0.93580   0.95780   0.59480   Biso      1.000     H          0.128843  
         H15       1.0000    0.63380   0.19400   0.51900   Biso      1.000     H          0.139494  
         H16       1.0000    0.40530   0.12160   0.66440   Biso      1.000     H          0.145746  
         H17       1.0000    0.58180   0.93940   0.65390   Biso      1.000     H          0.140519  
         H18       1.0000    0.12220   0.29780   0.88040   Biso      1.000     H          0.138547  
         H19       1.0000    0.10640   0.95780   0.90520   Biso      1.000     H          0.131521  
         H20       1.0000    0.17220   0.19400   0.98100   Biso      1.000     H          0.139932  
         H21       1.0000    0.47310   0.12160   0.83560   Biso      1.000     H          0.143902  
         H22       1.0000    0.47880   0.93940   0.84610   Biso      1.000     H          0.140152  
         H23       1.0000    0.87780   0.70220   0.11960   Biso      1.000     H          0.138547  
         H24       1.0000    0.89890   0.13000   0.91440   Biso      1.000     H          0.140274  
         Ho1       1.0000    0.77001   0.73918   0.47434   Biso      1.000     Ho          2.039449  
         Ho2       1.0000    0.75307   0.49386   0.75000   Biso      1.000     Ho          1.849231  
         Ho3       1.0000    0.24693   0.50614   0.25000   Biso      1.000     Ho          1.84923   
         Ho4       1.0000    0.21487   0.57026   0.75000   Biso      1.000     Ho          2.091372  
         Ho5       1.0000    0.78513   0.42974   0.25000   Biso      1.000     Ho          2.091372  
         Ho6       1.0000    0.50919   0.26082   0.97434   Biso      1.000     Ho          2.041324  
         Ho7       1.0000    0.22999   0.26082   0.52566   Biso      1.000     Ho          2.039449  
         Ho8       1.0000    0.49081   0.73918   0.02566   Biso      1.000     Ho          2.041325  
         N1        1.0000    0.64240   0.71520   0.75000   Biso      1.000     N          -0.358155           
         N2        1.0000    0.32740   0.34520   0.75000   Biso      1.000     N          -0.370637           
         N3        1.0000    0.35760   0.28480   0.25000   Biso      1.000     N          -0.358155           
         N4        1.0000    0.67260   0.65480   0.25000   Biso      1.000     N          -0.370637           
         N5        1.0000    0.86720   0.36720   0.83070   Biso      1.000     N          -0.353978           
         N6        1.0000    0.30000   0.91080   0.99380   Biso      1.000     N          -0.413052           
         N7        1.0000    0.76560   0.36720   0.66930   Biso      1.000     N          -0.353895           
         N8        1.0000    0.70000   0.08920   0.00620   Biso      1.000     N          -0.413051           
         N9        1.0000    0.13280   0.63280   0.16930   Biso      1.000     N          -0.353978           
         N10       1.0000    0.21080   0.08920   0.49380   Biso      1.000     N          -0.41518  
         N11       1.0000    0.23440   0.63280   0.33070   Biso      1.000     N          -0.353894           
         N12       1.0000    0.78920   0.91080   0.50620   Biso      1.000     N          -0.415179           
         O1        1.0000    0.30950   0.30940   0.59590   Biso      1.000     O          -0.680938           
         O2        1.0000    0.10390   0.22300   0.61810   Biso      1.000     O          -0.655344           
         O3        1.0000    0.55170   0.54860   0.72570   Biso      1.000     O          -0.579147           
         O4        1.0000    0.43080   0.49040   0.69000   Biso      1.000     O          -0.727168           
         O5        1.0000    0.95850   0.68540   0.51070   Biso      1.000     O          -0.713618           
         O6        1.0000    0.04730   0.72140   0.57700   Biso      1.000     O          -0.570576           
         O7        1.0000    0.60180   0.90940   0.46640   Biso      1.000     O          -0.623215           
         O8        1.0000    0.61330   0.09340   0.41850   Biso      1.000     O          -0.526238           
         O9        1.0000    0.22110   0.47320   0.65740   Biso      1.000     O          -0.619486           
         O10       1.0000    0.78190   0.58600   0.64750   Biso      1.000     O          -0.599984           
         O11       1.0000    0.30570   0.47320   0.84260   Biso      1.000     O          -0.618505           
         O12       1.0000    0.68080   0.35040   0.80200   Biso      1.000     O          -0.61064  
         O13       1.0000    0.67310   0.22300   0.88190   Biso      1.000     O          -0.655689           
         O14       1.0000    0.89970   0.54860   0.77430   Biso      1.000     O          -0.576638           
         O15       1.0000    0.07880   0.49040   0.81000   Biso      1.000     O          -0.725236           
         O16       1.0000    0.35610   0.68540   0.98930   Biso      1.000     O          -0.716801           
         O17       1.0000    0.23130   0.72140   0.92300   Biso      1.000     O          -0.571308           
         O18       1.0000    0.48880   0.90940   0.03360   Biso      1.000     O          -0.624147           
         O19       1.0000    0.29330   0.09340   0.08150   Biso      1.000     O          -0.52609  
         O20       1.0000    0.96880   0.35040   0.69800   Biso      1.000     O          -0.609349           
         O21       1.0000    0.38110   0.30940   0.90410   Biso      1.000     O          -0.680516           
         O22       1.0000    0.71230   0.74960   0.58520   Biso      1.000     O          -0.681413           
         O23       1.0000    0.46190   0.25040   0.08520   Biso      1.000     O          -0.680417           
         O24       1.0000    0.10030   0.45140   0.22570   Biso      1.000     O          -0.576638           
         O25       1.0000    0.61890   0.69060   0.09590   Biso      1.000     O          -0.680516           
         O26       1.0000    0.03120   0.64960   0.30200   Biso      1.000     O          -0.609349           
         O27       1.0000    0.89610   0.77700   0.38190   Biso      1.000     O          -0.655345           
         O28       1.0000    0.44830   0.45140   0.27430   Biso      1.000     O          -0.579147           
         O29       1.0000    0.56920   0.50960   0.31000   Biso      1.000     O          -0.727168           
         O30       1.0000    0.04150   0.31460   0.48930   Biso      1.000     O          -0.713618           
         O31       1.0000    0.95270   0.27860   0.42300   Biso      1.000     O          -0.570576           
         O32       1.0000    0.39820   0.09060   0.53360   Biso      1.000     O          -0.623214           
         O33       1.0000    0.38670   0.90660   0.58150   Biso      1.000     O          -0.526238           
         O34       1.0000    0.77890   0.52680   0.34260   Biso      1.000     O          -0.619486           
         O35       1.0000    0.69050   0.69060   0.40410   Biso      1.000     O          -0.680938           
         O36       1.0000    0.21810   0.41400   0.35250   Biso      1.000     O          -0.599984           
         O37       1.0000    0.28770   0.25040   0.41480   Biso      1.000     O          -0.681413           
         O38       1.0000    0.31920   0.64960   0.19800   Biso      1.000     O          -0.61064  
         O39       1.0000    0.32690   0.77700   0.11810   Biso      1.000     O          -0.655689           
         O40       1.0000    0.63210   0.58600   0.85250   Biso      1.000     O          -0.600276           
         O41       1.0000    0.92120   0.50960   0.19000   Biso      1.000     O          -0.725236           
         O42       1.0000    0.64390   0.31460   0.01070   Biso      1.000     O          -0.716801           
         O43       1.0000    0.76870   0.27860   0.07700   Biso      1.000     O          -0.571308           
         O44       1.0000    0.51120   0.09060   0.96640   Biso      1.000     O          -0.624147           
         O45       1.0000    0.70670   0.90660   0.91850   Biso      1.000     O          -0.52609  
         O46       1.0000    0.69430   0.52680   0.15740   Biso      1.000     O          -0.618505           
         O47       1.0000    0.36790   0.41400   0.14750   Biso      1.000     O          -0.600276           
         O48       1.0000    0.53810   0.74960   0.91480   Biso      1.000     O          -0.680417 