
##########################################################################
#               Crystallographic Information Format file
#               Produced by PyCifRW module
#
#  This is a CIF file.  CIF has been adopted by the International
#  Union of Crystallography as the standard for data archiving and
#  transmission.
#
#  For information on this file format, follow the CIF links at
#  http://www.iucr.org
##########################################################################

data_image0

_cell_length_a                          11.2049
_cell_length_b                          16.726
_cell_length_c                          17.152
_cell_angle_alpha                       64.592
_cell_angle_beta                        80.095
_cell_angle_gamma                       85.225
_symmetry_space_group_name_H-M          'P 1'
_symmetry_int_tables_number             1
loop_
  _symmetry_equiv_pos_as_xyz
         'x, y, z' 
loop_
  _atom_site_label
  _atom_site_occupancy
  _atom_site_fract_x
  _atom_site_fract_y
  _atom_site_fract_z
  _atom_site_thermal_displace_type
  _atom_site_B_iso_or_equiv
  _atom_site_type_symbol
  _atom_site_charge
         C1        1.0000    0.09070   0.22560   0.57900   Biso      1.000     C          -0.229908           
         C2        1.0000    0.60380   0.63920   0.66080   Biso      1.000     C          -0.084064           
         C3        1.0000    0.57930   0.55960   0.66260   Biso      1.000     C          -0.164791           
         C4        1.0000    0.63580   0.48460   0.71580   Biso      1.000     C          -0.080545           
         C5        1.0000    0.71650   0.48830   0.76690   Biso      1.000     C          -0.243757           
         C6        1.0000    0.06250   0.80600   0.73750   Biso      1.000     C          0.350933  
         C7        1.0000    0.04550   0.86850   0.77280   Biso      1.000     C          -0.231564           
         C8        1.0000    0.14330   0.91000   0.77880   Biso      1.000     C          -0.077609           
         C9        1.0000    0.25880   0.89150   0.75120   Biso      1.000     C          -0.162606           
         C10       1.0000    0.27960   0.83080   0.71530   Biso      1.000     C          -0.090907           
         C11       1.0000    0.18210   0.78850   0.70900   Biso      1.000     C          -0.265149           
         C12       1.0000    0.90930   0.77440   0.42100   Biso      1.000     C          -0.229908           
         C13       1.0000    0.96130   0.82070   0.33540   Biso      1.000     C          -0.070591           
         C14       1.0000    0.08140   0.84430   0.31370   Biso      1.000     C          -0.15343  
         C15       1.0000    0.15060   0.82030   0.37860   Biso      1.000     C          -0.065402           
         C16       1.0000    0.10140   0.77280   0.46590   Biso      1.000     C          -0.289851           
         C17       1.0000    0.15690   0.48870   0.74370   Biso      1.000     C          0.365031  
         C18       1.0000    0.27270   0.46580   0.76930   Biso      1.000     C          -0.260399           
         C19       1.0000    0.68340   0.64470   0.71190   Biso      1.000     C          -0.25321  
         C20       1.0000    0.74290   0.56890   0.76680   Biso      1.000     C          0.329266  
         C21       1.0000    0.65900   0.83590   0.79400   Biso      1.000     C          -0.271667           
         C22       1.0000    0.62500   0.92390   0.75450   Biso      1.000     C          -0.088431           
         C23       1.0000    0.02060   0.25140   0.51010   Biso      1.000     C          0.305256  
         C24       1.0000    0.03870   0.17930   0.66460   Biso      1.000     C          -0.070592           
         C25       1.0000    0.42830   0.66080   0.87070   Biso      1.000     C          -0.358485           
         C26       1.0000    0.46580   0.57420   0.01830   Biso      1.000     C          -0.127717           
         C27       1.0000    0.46650   0.50430   0.92250   Biso      1.000     C          -0.119124           
         C28       1.0000    0.05610   0.67490   0.96130   Biso      1.000     C          -0.360083           
         C29       1.0000    0.10700   0.54050   0.94470   Biso      1.000     C          -0.119202           
         C30       1.0000    0.93650   0.54520   0.04690   Biso      1.000     C          -0.115151           
         C31       1.0000    0.30740   0.37980   0.81540   Biso      1.000     C          -0.085852           
         C32       1.0000    0.77610   0.91760   0.53370   Biso      1.000     C          -0.355346           
         C33       1.0000    0.95860   0.98040   0.43730   Biso      1.000     C          -0.116586           
         C34       1.0000    0.23640   0.55140   0.49210   Biso      1.000     C          -0.359677           
         C35       1.0000    0.05320   0.57510   0.42870   Biso      1.000     C          -0.119512           
         C36       1.0000    0.08120   0.44140   0.55340   Biso      1.000     C          -0.122601           
         C37       1.0000    0.71110   0.79950   0.87170   Biso      1.000     C          0.381715  
         C38       1.0000    0.72720   0.86130   0.90490   Biso      1.000     C          -0.256405           
         C39       1.0000    0.69300   0.94980   0.86390   Biso      1.000     C          -0.093085           
         C40       1.0000    0.64100   0.98150   0.78840   Biso      1.000     C          -0.174742           
         C41       1.0000    0.91200   0.99500   0.57150   Biso      1.000     C          -0.117191           
         C42       1.0000    0.23030   0.31260   0.83730   Biso      1.000     C          -0.179657           
         C43       1.0000    0.97940   0.74860   0.48990   Biso      1.000     C          0.305256  
         C44       1.0000    0.07970   0.41790   0.76730   Biso      1.000     C          -0.248413           
         C45       1.0000    0.42070   0.44040   0.33740   Biso      1.000     C          -0.164794           
         C46       1.0000    0.36420   0.51540   0.28420   Biso      1.000     C          -0.080545           
         C47       1.0000    0.28350   0.51170   0.23310   Biso      1.000     C          -0.243757           
         C48       1.0000    0.93750   0.19400   0.26250   Biso      1.000     C          0.350934  
         C49       1.0000    0.95450   0.13150   0.22720   Biso      1.000     C          -0.231565           
         C50       1.0000    0.85670   0.09000   0.22120   Biso      1.000     C          -0.077609           
         C51       1.0000    0.74120   0.10850   0.24880   Biso      1.000     C          -0.162606           
         C52       1.0000    0.11530   0.33180   0.81260   Biso      1.000     C          -0.090188           
         C53       1.0000    0.39620   0.36080   0.33920   Biso      1.000     C          -0.08406  
         C54       1.0000    0.81790   0.21150   0.29100   Biso      1.000     C          -0.265151           
         C55       1.0000    0.84940   0.17970   0.62140   Biso      1.000     C          -0.065413           
         C56       1.0000    0.89860   0.22720   0.53410   Biso      1.000     C          -0.28985  
         C57       1.0000    0.84310   0.51130   0.25630   Biso      1.000     C          0.365031  
         C58       1.0000    0.72730   0.53420   0.23070   Biso      1.000     C          -0.260398           
         C59       1.0000    0.69260   0.62020   0.18460   Biso      1.000     C          -0.085852           
         C60       1.0000    0.76970   0.68740   0.16270   Biso      1.000     C          -0.179656           
         C61       1.0000    0.88470   0.66820   0.18740   Biso      1.000     C          -0.090193           
         C62       1.0000    0.92030   0.58210   0.23270   Biso      1.000     C          -0.248408           
         C63       1.0000    0.91860   0.15570   0.68630   Biso      1.000     C          -0.153419           
         C64       1.0000    0.31660   0.35530   0.28810   Biso      1.000     C          -0.25321  
         C65       1.0000    0.72040   0.16920   0.28470   Biso      1.000     C          -0.090905           
         C66       1.0000    0.34100   0.16410   0.20600   Biso      1.000     C          -0.271667           
         C67       1.0000    0.53420   0.42580   0.98170   Biso      1.000     C          -0.127717           
         C68       1.0000    0.25710   0.43110   0.23320   Biso      1.000     C          0.329266  
         C69       1.0000    0.57170   0.33920   0.12930   Biso      1.000     C          -0.358485           
         C70       1.0000    0.53350   0.49570   0.07750   Biso      1.000     C          -0.119124           
         C71       1.0000    0.94390   0.32510   0.03870   Biso      1.000     C          -0.360083           
         C72       1.0000    0.89300   0.45950   0.05530   Biso      1.000     C          -0.119202           
         C73       1.0000    0.22390   0.08240   0.46630   Biso      1.000     C          -0.355346           
         C74       1.0000    0.08800   0.00500   0.42850   Biso      1.000     C          -0.117191           
         C75       1.0000    0.06350   0.45480   0.95310   Biso      1.000     C          -0.115151           
         C76       1.0000    0.76360   0.44860   0.50790   Biso      1.000     C          -0.359677           
         C77       1.0000    0.37500   0.07610   0.24550   Biso      1.000     C          -0.088431           
         C78       1.0000    0.35900   0.01850   0.21160   Biso      1.000     C          -0.174742           
         C79       1.0000    0.04140   0.01960   0.56270   Biso      1.000     C          -0.116586           
         C80       1.0000    0.27280   0.13870   0.09510   Biso      1.000     C          -0.256405           
         C81       1.0000    0.30700   0.05020   0.13610   Biso      1.000     C          -0.093084           
         C82       1.0000    0.91880   0.55860   0.44660   Biso      1.000     C          -0.122601           
         C83       1.0000    0.94680   0.42490   0.57130   Biso      1.000     C          -0.119512           
         C84       1.0000    0.28890   0.20050   0.12830   Biso      1.000     C          0.381715  
         H1        1.0000    0.09700   0.21500   0.25400   Biso      1.000     H          0.308182  
         H2        1.0000    0.14600   0.30600   0.41800   Biso      1.000     H          0.305108  
         H3        1.0000    0.03430   0.11730   0.20710   Biso      1.000     H          0.114908  
         H4        1.0000    0.87070   0.04780   0.19720   Biso      1.000     H          0.098879  
         H5        1.0000    0.67520   0.07990   0.24350   Biso      1.000     H          0.097427  
         H6        1.0000    0.64000   0.18190   0.30500   Biso      1.000     H          0.095455  
         H7        1.0000    0.24540   0.56460   0.19730   Biso      1.000     H          0.117033  
         H8        1.0000    0.17410   0.24050   0.56590   Biso      1.000     H          0.118251  
         H9        1.0000    0.74560   0.74700   0.13080   Biso      1.000     H          0.096389  
         H10       1.0000    0.88440   0.12320   0.74560   Biso      1.000     H          0.103563  
         H11       1.0000    0.76640   0.16380   0.63600   Biso      1.000     H          0.098392  
         H12       1.0000    0.84830   0.24340   0.49020   Biso      1.000     H          0.109959  
         H13       1.0000    0.81700   0.38900   0.31700   Biso      1.000     H          0.290298  
         H14       1.0000    0.67130   0.48840   0.24590   Biso      1.000     H          0.100716  
         H15       1.0000    0.61410   0.63280   0.16800   Biso      1.000     H          0.096353  
         H16       1.0000    0.93890   0.71500   0.17270   Biso      1.000     H          0.097145  
         H17       1.0000    0.99930   0.57040   0.24850   Biso      1.000     H          0.104115  
         H18       1.0000    0.38090   0.57100   0.28240   Biso      1.000     H          0.101677  
         H19       1.0000    0.08690   0.16320   0.70970   Biso      1.000     H          0.101231  
         H20       1.0000    0.47570   0.44380   0.37230   Biso      1.000     H          0.102204  
         H21       1.0000    0.80260   0.25350   0.31530   Biso      1.000     H          0.107396  
         H22       1.0000    0.30180   0.29920   0.29010   Biso      1.000     H          0.109955  
         H23       1.0000    0.06790   0.63960   0.39870   Biso      1.000     H          0.101552  
         H24       1.0000    0.09350   0.54820   0.38950   Biso      1.000     H          0.079201  
         H25       1.0000    0.12190   0.41310   0.51550   Biso      1.000     H          0.085703  
         H26       1.0000    0.11470   0.41470   0.60900   Biso      1.000     H          0.105155  
         H27       1.0000    0.76000   0.69500   0.96000   Biso      1.000     H          0.311182  
         H28       1.0000    0.76230   0.84190   0.95670   Biso      1.000     H          0.110262  
         H29       1.0000    0.70570   0.98930   0.88820   Biso      1.000     H          0.103022  
         H30       1.0000    0.61720   0.04190   0.76110   Biso      1.000     H          0.096128  
         H31       1.0000    0.58970   0.94450   0.70260   Biso      1.000     H          0.091917  
         H32       1.0000    0.25290   0.61490   0.46220   Biso      1.000     H          0.138141  
         H33       1.0000    0.64680   0.79800   0.76770   Biso      1.000     H          0.093474  
         H34       1.0000    0.69820   0.70080   0.70990   Biso      1.000     H          0.109955  
         H35       1.0000    0.56560   0.69150   0.62410   Biso      1.000     H          0.098875  
         H36       1.0000    0.52430   0.55620   0.62770   Biso      1.000     H          0.102203  
         H37       1.0000    0.61910   0.42900   0.71760   Biso      1.000     H          0.101677  
         H38       1.0000    0.75460   0.43540   0.80270   Biso      1.000     H          0.117033  
         H39       1.0000    0.90300   0.78500   0.74600   Biso      1.000     H          0.308182  
         H40       1.0000    0.96570   0.88270   0.79290   Biso      1.000     H          0.114908  
         H41       1.0000    0.12930   0.95220   0.80280   Biso      1.000     H          0.098879  
         H42       1.0000    0.32480   0.92010   0.75650   Biso      1.000     H          0.097427  
         H43       1.0000    0.84800   0.52400   0.84800   Biso      1.000     H          0.302841  
         H44       1.0000    0.36000   0.81810   0.69500   Biso      1.000     H          0.095455  
         H45       1.0000    0.27460   0.52250   0.45480   Biso      1.000     H          0.129098  
         H46       1.0000    0.91100   0.03460   0.40790   Biso      1.000     H          0.082366  
         H47       1.0000    0.44890   0.71490   0.87430   Biso      1.000     H          0.146426  
         H48       1.0000    0.44910   0.66790   0.81020   Biso      1.000     H          0.133961  
         H49       1.0000    0.34130   0.64990   0.89000   Biso      1.000     H          0.12845   
         H50       1.0000    0.48690   0.62840   0.02240   Biso      1.000     H          0.113179  
         H51       1.0000    0.37750   0.56500   0.03730   Biso      1.000     H          0.080758  
         H52       1.0000    0.37820   0.49410   0.94010   Biso      1.000     H          0.082217  
         H53       1.0000    0.48800   0.51080   0.86160   Biso      1.000     H          0.106416  
         H54       1.0000    0.10190   0.71000   0.90380   Biso      1.000     H          0.138942  
         H55       1.0000    0.99000   0.71100   0.97530   Biso      1.000     H          0.14421   
         H56       1.0000    0.26940   0.52590   0.54720   Biso      1.000     H          0.145375  
         H57       1.0000    0.11010   0.65550   0.00550   Biso      1.000     H          0.122729  
         H58       1.0000    0.16310   0.52850   0.98720   Biso      1.000     H          0.069934  
         H59       1.0000    0.98860   0.53310   0.09200   Biso      1.000     H          0.087126  
         H60       1.0000    0.86600   0.58080   0.05780   Biso      1.000     H          0.103319  
         H61       1.0000    0.73890   0.88700   0.59490   Biso      1.000     H          0.134056  
         H62       1.0000    0.73340   0.97390   0.50580   Biso      1.000     H          0.131864  
         H63       1.0000    0.77080   0.88050   0.50320   Biso      1.000     H          0.140987  
         H64       1.0000    0.86370   0.04930   0.54390   Biso      1.000     H          0.078988  
         H65       1.0000    0.87760   0.96570   0.63410   Biso      1.000     H          0.106761  
         H66       1.0000    0.95570   0.94120   0.40780   Biso      1.000     H          0.099255  
         H67       1.0000    0.15230   0.57260   0.88530   Biso      1.000     H          0.10612   
         H68       1.0000    0.43440   0.30850   0.37590   Biso      1.000     H          0.098874  
         H69       1.0000    0.19740   0.74650   0.68470   Biso      1.000     H          0.107396  
         H70       1.0000    0.82590   0.75950   0.43410   Biso      1.000     H          0.118251  
         H71       1.0000    0.26110   0.11300   0.40510   Biso      1.000     H          0.134056  
         H72       1.0000    0.26660   0.02610   0.49420   Biso      1.000     H          0.131864  
         H73       1.0000    0.22920   0.11950   0.49680   Biso      1.000     H          0.140987  
         H74       1.0000    0.13630   0.95070   0.45610   Biso      1.000     H          0.078988  
         H75       1.0000    0.12240   0.03430   0.36590   Biso      1.000     H          0.106761  
         H76       1.0000    0.04430   0.05880   0.59220   Biso      1.000     H          0.099254  
         H77       1.0000    0.08900   0.96540   0.59210   Biso      1.000     H          0.082366  
         H78       1.0000    0.73060   0.47410   0.45280   Biso      1.000     H          0.145375  
         H79       1.0000    0.72540   0.47750   0.54520   Biso      1.000     H          0.129098  
         H80       1.0000    0.13400   0.41920   0.94220   Biso      1.000     H          0.10332   
         H81       1.0000    0.74710   0.38510   0.53780   Biso      1.000     H          0.138141  
         H82       1.0000    0.90650   0.45180   0.61050   Biso      1.000     H          0.079201  
         H83       1.0000    0.87810   0.58690   0.48450   Biso      1.000     H          0.085703  
         H84       1.0000    0.88530   0.58530   0.39100   Biso      1.000     H          0.105155  
         H85       1.0000    0.24000   0.30500   0.04000   Biso      1.000     H          0.311182  
         H86       1.0000    0.23770   0.15810   0.04330   Biso      1.000     H          0.110262  
         H87       1.0000    0.29430   0.01070   0.11180   Biso      1.000     H          0.103022  
         H88       1.0000    0.41030   0.05550   0.29740   Biso      1.000     H          0.091918  
         H89       1.0000    0.35320   0.20200   0.23230   Biso      1.000     H          0.093474  
         H90       1.0000    0.15200   0.47600   0.15200   Biso      1.000     H          0.302841  
         H91       1.0000    0.93210   0.36040   0.60130   Biso      1.000     H          0.101552  
         H92       1.0000    0.85400   0.69400   0.58200   Biso      1.000     H          0.305108  
         H93       1.0000    0.01140   0.46690   0.90800   Biso      1.000     H          0.087126  
         H94       1.0000    0.84770   0.42740   0.11470   Biso      1.000     H          0.10612   
         H95       1.0000    0.91310   0.83680   0.29030   Biso      1.000     H          0.101231  
         H96       1.0000    0.11560   0.87680   0.25440   Biso      1.000     H          0.103564  
         H97       1.0000    0.23360   0.83620   0.36400   Biso      1.000     H          0.098391  
         H98       1.0000    0.15170   0.75660   0.50980   Biso      1.000     H          0.109959  
         H99       1.0000    0.18300   0.61100   0.68300   Biso      1.000     H          0.290298  
         H100      1.0000    0.32870   0.51160   0.75410   Biso      1.000     H          0.100716  
         H101      1.0000    0.38590   0.36720   0.83200   Biso      1.000     H          0.096353  
         H102      1.0000    0.25440   0.25300   0.86920   Biso      1.000     H          0.096389  
         H103      1.0000    0.06110   0.28500   0.82730   Biso      1.000     H          0.097145  
         H104      1.0000    0.83690   0.47150   0.01280   Biso      1.000     H          0.069934  
         H105      1.0000    0.00070   0.42960   0.75150   Biso      1.000     H          0.104115  
         H106      1.0000    0.55090   0.33210   0.18980   Biso      1.000     H          0.133961  
         H107      1.0000    0.65870   0.35010   0.11000   Biso      1.000     H          0.12845   
         H108      1.0000    0.51310   0.37160   0.97760   Biso      1.000     H          0.113179  
         H109      1.0000    0.62250   0.43500   0.96270   Biso      1.000     H          0.080758  
         H110      1.0000    0.62180   0.50590   0.05990   Biso      1.000     H          0.082217  
         H111      1.0000    0.51200   0.48920   0.13840   Biso      1.000     H          0.106416  
         H112      1.0000    0.89810   0.29000   0.09620   Biso      1.000     H          0.138942  
         H113      1.0000    0.01000   0.28900   0.02470   Biso      1.000     H          0.14421   
         H114      1.0000    0.88990   0.34450   0.99450   Biso      1.000     H          0.122729  
         H115      1.0000    0.55110   0.28510   0.12570   Biso      1.000     H          0.146426  
         H116      1.0000    0.38280   0.95810   0.23890   Biso      1.000     H          0.096128  
         Li1       1.0000    0.67580   0.62270   0.88470   Biso      1.000     Li          0.741766  
         Li2       1.0000    0.95140   0.40010   0.40730   Biso      1.000     Li          0.747834  
         Li3       1.0000    0.96650   0.64540   0.71420   Biso      1.000     Li          0.751466  
         Li4       1.0000    0.96060   0.80750   0.60230   Biso      1.000     Li          0.763186  
         Li5       1.0000    0.04860   0.59990   0.59270   Biso      1.000     Li          0.747834  
         Li6       1.0000    0.89450   0.66160   0.85720   Biso      1.000     Li          0.728363  
         Li7       1.0000    0.10550   0.33840   0.14280   Biso      1.000     Li          0.728363  
         Li8       1.0000    0.03350   0.35460   0.28580   Biso      1.000     Li          0.751466  
         Li9       1.0000    0.03940   0.19250   0.39770   Biso      1.000     Li          0.763186  
         Li10      1.0000    0.32420   0.37730   0.11530   Biso      1.000     Li          0.741766  
         N1        1.0000    0.50320   0.41450   0.07290   Biso      1.000     N          -0.17595  
         N2        1.0000    0.03250   0.23870   0.26847   Biso      1.000     N          -1.11266  
         N3        1.0000    0.17990   0.42320   0.18170   Biso      1.000     N          -1.075799           
         N4        1.0000    0.25830   0.28880   0.09070   Biso      1.000     N          -1.056975           
         N5        1.0000    0.89490   0.46250   0.49000   Biso      1.000     N          -0.171652           
         N6        1.0000    0.09670   0.06519   0.47022   Biso      1.000     N          -0.187626           
         N7        1.0000    0.99470   0.40350   0.03974   Biso      1.000     N          -0.160715           
         N8        1.0000    0.11950   0.57440   0.69740   Biso      1.000     N          -1.0387   
         N9        1.0000    0.74170   0.71120   0.90930   Biso      1.000     N          -1.056975           
         N10       1.0000    0.96750   0.76130   0.73153   Biso      1.000     N          -1.112659           
         N11       1.0000    0.82010   0.57680   0.81830   Biso      1.000     N          -1.075799           
         N12       1.0000    0.06670   0.29720   0.42270   Biso      1.000     N          -1.08647  
         N13       1.0000    0.10510   0.53750   0.51000   Biso      1.000     N          -0.171652           
         N14       1.0000    0.90330   0.93481   0.52978   Biso      1.000     N          -0.187626           
         N15       1.0000    0.00530   0.59650   0.96026   Biso      1.000     N          -0.160715           
         N16       1.0000    0.49680   0.58550   0.92710   Biso      1.000     N          -0.17595  
         N17       1.0000    0.93330   0.70280   0.57730   Biso      1.000     N          -1.08647  
         N18       1.0000    0.88050   0.42560   0.30260   Biso      1.000     N          -1.038701 