
##########################################################################
#               Crystallographic Information Format file
#               Produced by PyCifRW module
#
#  This is a CIF file.  CIF has been adopted by the International
#  Union of Crystallography as the standard for data archiving and
#  transmission.
#
#  For information on this file format, follow the CIF links at
#  http://www.iucr.org
##########################################################################

data_image0

_cell_length_a                          12.5247
_cell_length_b                          32.2184
_cell_length_c                          7.6101
_cell_angle_alpha                       90
_cell_angle_beta                        98.856
_cell_angle_gamma                       90
_symmetry_space_group_name_H-M          'P 1'
_symmetry_int_tables_number             1
loop_
  _symmetry_equiv_pos_as_xyz
         'x, y, z' 
loop_
  _atom_site_label
  _atom_site_occupancy
  _atom_site_fract_x
  _atom_site_fract_y
  _atom_site_fract_z
  _atom_site_thermal_displace_type
  _atom_site_B_iso_or_equiv
  _atom_site_type_symbol
  _atom_site_charge
         C1        1.0000    0.85010   0.89570   0.27050   Biso      1.000     C          -0.151379           
         C2        1.0000    0.16720   0.15360   0.08140   Biso      1.000     C          -0.02537  
         C3        1.0000    0.75820   0.31700   0.63900   Biso      1.000     C          0.626524  
         C4        1.0000    0.21010   0.11680   0.66670   Biso      1.000     C          0.071857  
         C5        1.0000    0.77350   0.15970   0.29690   Biso      1.000     C          0.007887  
         C6        1.0000    0.15000   0.11190   0.11570   Biso      1.000     C          -0.034637           
         C7        1.0000    0.79630   0.11950   0.25370   Biso      1.000     C          -0.01636  
         C8        1.0000    0.50680   0.36290   0.46050   Biso      1.000     C          0.306043  
         C9        1.0000    0.35010   0.39570   0.27050   Biso      1.000     C          -0.151379           
         C10       1.0000    0.94330   0.14440   0.40050   Biso      1.000     C          0.322099  
         C11       1.0000    0.24320   0.39190   0.18420   Biso      1.000     C          0.067632  
         C12       1.0000    0.10610   0.88700   0.08530   Biso      1.000     C          -0.151048           
         C13       1.0000    0.89750   0.86060   0.36560   Biso      1.000     C          0.044971  
         C14       1.0000    0.33320   0.32520   0.36370   Biso      1.000     C          -0.188609           
         C15       1.0000    0.44330   0.35560   0.90050   Biso      1.000     C          0.322099  
         C16       1.0000    0.60610   0.38700   0.08530   Biso      1.000     C          -0.151048           
         C17       1.0000    0.67560   0.18690   0.27270   Biso      1.000     C          0.629592  
         C18       1.0000    0.66720   0.34640   0.58140   Biso      1.000     C          -0.02537  
         C19       1.0000    0.17560   0.68690   0.27270   Biso      1.000     C          0.629592  
         C20       1.0000    0.29630   0.38050   0.75370   Biso      1.000     C          -0.016364           
         C21       1.0000    0.71350   0.31350   0.10150   Biso      1.000     C          0.095233  
         C22       1.0000    0.74320   0.10810   0.68420   Biso      1.000     C          0.067632  
         C23       1.0000    0.00680   0.13710   0.96050   Biso      1.000     C          0.306043  
         C24       1.0000    0.83320   0.17480   0.86370   Biso      1.000     C          -0.188609           
         C25       1.0000    0.83320   0.82520   0.36370   Biso      1.000     C          -0.188609           
         C26       1.0000    0.74320   0.89190   0.18420   Biso      1.000     C          0.067632  
         C27       1.0000    0.85010   0.10430   0.77050   Biso      1.000     C          -0.151379           
         C28       1.0000    0.23030   0.41400   0.64470   Biso      1.000     C          0.623606  
         C29       1.0000    0.10960   0.18540   0.50270   Biso      1.000     C          -0.190773           
         C30       1.0000    0.39750   0.36060   0.36560   Biso      1.000     C          0.044971  
         C31       1.0000    0.55510   0.35180   0.99530   Biso      1.000     C          0.042652  
         C32       1.0000    0.60960   0.31460   0.00270   Biso      1.000     C          -0.190768           
         C33       1.0000    0.72750   0.17460   0.78060   Biso      1.000     C          0.10226   
         C34       1.0000    0.89750   0.13940   0.86560   Biso      1.000     C          0.044971  
         C35       1.0000    0.22750   0.32540   0.28060   Biso      1.000     C          0.10226   
         C36       1.0000    0.21350   0.18650   0.60150   Biso      1.000     C          0.095234  
         C37       1.0000    0.73030   0.08600   0.14470   Biso      1.000     C          0.623606  
         C38       1.0000    0.71480   0.41920   0.72780   Biso      1.000     C          0.605012  
         C39       1.0000    0.05510   0.85180   0.99530   Biso      1.000     C          0.042652  
         C40       1.0000    0.21480   0.08080   0.22780   Biso      1.000     C          0.605012  
         C41       1.0000    0.25820   0.18300   0.13900   Biso      1.000     C          0.626524  
         C42       1.0000    0.05510   0.14820   0.49530   Biso      1.000     C          0.042655  
         C43       1.0000    0.10960   0.81460   0.00270   Biso      1.000     C          -0.190768           
         C44       1.0000    0.10610   0.11300   0.58530   Biso      1.000     C          -0.151036           
         C45       1.0000    0.17560   0.31310   0.77270   Biso      1.000     C          0.629592  
         C46       1.0000    0.23030   0.58600   0.14470   Biso      1.000     C          0.623606  
         C47       1.0000    0.71010   0.38320   0.16670   Biso      1.000     C          0.071869  
         C48       1.0000    0.79630   0.88050   0.75370   Biso      1.000     C          -0.016364           
         C49       1.0000    0.71480   0.58080   0.22780   Biso      1.000     C          0.605012  
         C50       1.0000    0.75820   0.68300   0.13900   Biso      1.000     C          0.626524  
         C51       1.0000    0.50680   0.63710   0.96050   Biso      1.000     C          0.306043  
         C52       1.0000    0.15000   0.88810   0.61570   Biso      1.000     C          -0.034637           
         C53       1.0000    0.24320   0.60810   0.68420   Biso      1.000     C          0.067632  
         C54       1.0000    0.44330   0.64440   0.40050   Biso      1.000     C          0.322099  
         C55       1.0000    0.66720   0.65360   0.08140   Biso      1.000     C          -0.025369           
         C56       1.0000    0.77350   0.84030   0.79690   Biso      1.000     C          0.007891  
         C57       1.0000    0.71010   0.61680   0.66670   Biso      1.000     C          0.071857  
         C58       1.0000    0.27350   0.65970   0.29690   Biso      1.000     C          0.007888  
         C59       1.0000    0.65000   0.61190   0.11570   Biso      1.000     C          -0.034637           
         C60       1.0000    0.29630   0.61950   0.25370   Biso      1.000     C          -0.01636  
         C61       1.0000    0.71350   0.68650   0.60150   Biso      1.000     C          0.095233  
         C62       1.0000    0.65000   0.38810   0.61570   Biso      1.000     C          -0.034637           
         C63       1.0000    0.39750   0.63940   0.86560   Biso      1.000     C          0.044971  
         C64       1.0000    0.67560   0.81310   0.77270   Biso      1.000     C          0.629592  
         C65       1.0000    0.27350   0.34030   0.79690   Biso      1.000     C          0.007891  
         C66       1.0000    0.21350   0.81350   0.10150   Biso      1.000     C          0.095233  
         C67       1.0000    0.94330   0.85560   0.90050   Biso      1.000     C          0.322099  
         C68       1.0000    0.73030   0.91400   0.64470   Biso      1.000     C          0.623606  
         C69       1.0000    0.60610   0.61300   0.58530   Biso      1.000     C          -0.151036           
         C70       1.0000    0.21480   0.91920   0.72780   Biso      1.000     C          0.605012  
         C71       1.0000    0.33320   0.67480   0.86370   Biso      1.000     C          -0.188609           
         C72       1.0000    0.55510   0.64820   0.49530   Biso      1.000     C          0.042651  
         C73       1.0000    0.21010   0.88320   0.16670   Biso      1.000     C          0.071869  
         C74       1.0000    0.35010   0.60430   0.77050   Biso      1.000     C          -0.151379           
         C75       1.0000    0.00680   0.86290   0.46050   Biso      1.000     C          0.306043  
         C76       1.0000    0.16720   0.84640   0.58140   Biso      1.000     C          -0.02537  
         C77       1.0000    0.60960   0.68540   0.50270   Biso      1.000     C          -0.190768           
         C78       1.0000    0.72750   0.82540   0.28060   Biso      1.000     C          0.10226   
         C79       1.0000    0.22750   0.67460   0.78060   Biso      1.000     C          0.10226   
         C80       1.0000    0.25820   0.81700   0.63900   Biso      1.000     C          0.626524  
         Cd1       1.0000    0.47213   0.55056   0.18983   Biso      1.000     Cd          0.926661  
         Cd2       1.0000    0.07574   0.23761   0.94372   Biso      1.000     Cd          0.896135  
         Cd3       1.0000    0.47213   0.44944   0.68983   Biso      1.000     Cd          0.926661  
         Cd4       1.0000    0.57574   0.73761   0.94372   Biso      1.000     Cd          0.896135  
         Cd5       1.0000    0.97213   0.94944   0.68983   Biso      1.000     Cd          0.926661  
         Cd6       1.0000    0.57574   0.26239   0.44372   Biso      1.000     Cd          0.896134  
         Cd7       1.0000    0.07574   0.76239   0.44372   Biso      1.000     Cd          0.896134  
         Cd8       1.0000    0.97213   0.05056   0.18983   Biso      1.000     Cd          0.926661  
         Cl1       1.0000    0.95780   0.98724   0.98880   Biso      1.000     Cl          -0.54443  
         Cl2       1.0000    0.97250   0.26681   0.16430   Biso      1.000     Cl          -0.533417           
         Cl3       1.0000    0.47250   0.23319   0.66430   Biso      1.000     Cl          -0.533417           
         Cl4       1.0000    0.97250   0.73319   0.66430   Biso      1.000     Cl          -0.533417           
         Cl5       1.0000    0.47250   0.76681   0.16430   Biso      1.000     Cl          -0.533417           
         Cl6       1.0000    0.95780   0.01276   0.48880   Biso      1.000     Cl          -0.54443  
         Cl7       1.0000    0.45780   0.51276   0.48880   Biso      1.000     Cl          -0.54443  
         Cl8       1.0000    0.45780   0.48724   0.98880   Biso      1.000     Cl          -0.54443  
         H1        1.0000    0.18540   0.30180   0.28800   Biso      1.000     H          0.093127  
         H2        1.0000    0.24590   0.90680   0.21520   Biso      1.000     H          0.083728  
         H3        1.0000    0.37860   0.30130   0.93400   Biso      1.000     H          0.326983  
         H4        1.0000    0.83720   0.42770   0.50510   Biso      1.000     H          0.383634  
         H5        1.0000    0.88390   0.46370   0.52090   Biso      1.000     H          0.460351  
         H6        1.0000    0.74990   0.28830   0.11340   Biso      1.000     H          0.099083  
         H7        1.0000    0.24990   0.78830   0.11340   Biso      1.000     H          0.099083  
         H8        1.0000    0.56910   0.41200   0.08820   Biso      1.000     H          0.132091  
         H9        1.0000    0.36230   0.30110   0.41930   Biso      1.000     H          0.108357  
         H10       1.0000    0.38850   0.42030   0.26560   Biso      1.000     H          0.136299  
         H11       1.0000    0.21230   0.41440   0.11890   Biso      1.000     H          0.086143  
         H12       1.0000    0.57870   0.29110   0.94440   Biso      1.000     H          0.129732  
         H13       1.0000    0.74590   0.40680   0.21520   Biso      1.000     H          0.083729  
         H14       1.0000    0.88850   0.07970   0.76560   Biso      1.000     H          0.136299  
         H15       1.0000    0.71230   0.91440   0.11890   Biso      1.000     H          0.086143  
         H16       1.0000    0.24990   0.21170   0.61340   Biso      1.000     H          0.099082  
         H17       1.0000    0.56910   0.58800   0.58820   Biso      1.000     H          0.13209   
         H18       1.0000    0.37860   0.69870   0.43400   Biso      1.000     H          0.326983  
         H19       1.0000    0.36230   0.69890   0.91930   Biso      1.000     H          0.108357  
         H20       1.0000    0.87860   0.80130   0.93400   Biso      1.000     H          0.326983  
         H21       1.0000    0.38850   0.57970   0.76560   Biso      1.000     H          0.136299  
         H22       1.0000    0.33720   0.92770   0.50510   Biso      1.000     H          0.383634  
         H23       1.0000    0.38390   0.96370   0.52090   Biso      1.000     H          0.460351  
         H24       1.0000    0.57870   0.70890   0.44440   Biso      1.000     H          0.129732  
         H25       1.0000    0.06910   0.91200   0.08820   Biso      1.000     H          0.132091  
         H26       1.0000    0.18540   0.69820   0.78800   Biso      1.000     H          0.093127  
         H27       1.0000    0.24590   0.09320   0.71520   Biso      1.000     H          0.083729  
         H28       1.0000    0.71230   0.08560   0.61890   Biso      1.000     H          0.086143  
         H29       1.0000    0.74990   0.71170   0.61340   Biso      1.000     H          0.099083  
         H30       1.0000    0.83720   0.57230   0.00510   Biso      1.000     H          0.383634  
         H31       1.0000    0.68540   0.19820   0.78800   Biso      1.000     H          0.093127  
         H32       1.0000    0.88390   0.53630   0.02090   Biso      1.000     H          0.460352  
         H33       1.0000    0.07870   0.20890   0.44440   Biso      1.000     H          0.129733  
         H34       1.0000    0.68540   0.80180   0.28800   Biso      1.000     H          0.093127  
         H35       1.0000    0.07870   0.79110   0.94440   Biso      1.000     H          0.129732  
         H36       1.0000    0.88850   0.92030   0.26560   Biso      1.000     H          0.136299  
         H37       1.0000    0.87860   0.19870   0.43400   Biso      1.000     H          0.326983  
         H38       1.0000    0.86230   0.80110   0.41930   Biso      1.000     H          0.108357  
         H39       1.0000    0.33720   0.07230   0.00510   Biso      1.000     H          0.383634  
         H40       1.0000    0.38390   0.03630   0.02090   Biso      1.000     H          0.460352  
         H41       1.0000    0.74590   0.59320   0.71520   Biso      1.000     H          0.083729  
         H42       1.0000    0.06910   0.08800   0.58820   Biso      1.000     H          0.13209   
         H43       1.0000    0.86230   0.19890   0.91930   Biso      1.000     H          0.108357  
         H44       1.0000    0.21230   0.58560   0.61890   Biso      1.000     H          0.086143  
         N1        1.0000    0.04840   0.89790   0.53780   Biso      1.000     N          -0.366457           
         N2        1.0000    0.76320   0.65280   0.68020   Biso      1.000     N          -0.297658           
         N3        1.0000    0.18350   0.64190   0.69010   Biso      1.000     N          -0.331437           
         N4        1.0000    0.57530   0.66890   0.98300   Biso      1.000     N          -0.37397  
         N5        1.0000    0.07530   0.83110   0.48300   Biso      1.000     N          -0.37397  
         N6        1.0000    0.54840   0.60210   0.03780   Biso      1.000     N          -0.366458           
         N7        1.0000    0.26320   0.84720   0.18020   Biso      1.000     N          -0.29766  
         N8        1.0000    0.68350   0.85810   0.19010   Biso      1.000     N          -0.331437           
         N9        1.0000    0.54840   0.39790   0.53780   Biso      1.000     N          -0.366458           
         N10       1.0000    0.86860   0.82580   0.88970   Biso      1.000     N          -0.284949           
         N11       1.0000    0.40260   0.38970   0.81750   Biso      1.000     N          -0.35353  
         N12       1.0000    0.90260   0.11030   0.31750   Biso      1.000     N          -0.353531           
         N13       1.0000    0.86860   0.17420   0.38970   Biso      1.000     N          -0.284949           
         N14       1.0000    0.76320   0.34720   0.18020   Biso      1.000     N          -0.29766  
         N15       1.0000    0.18350   0.35810   0.19010   Biso      1.000     N          -0.331437           
         N16       1.0000    0.90260   0.88970   0.81750   Biso      1.000     N          -0.35353  
         N17       1.0000    0.26320   0.15280   0.68020   Biso      1.000     N          -0.297658           
         N18       1.0000    0.68350   0.14190   0.69010   Biso      1.000     N          -0.331437           
         N19       1.0000    0.04840   0.10210   0.03780   Biso      1.000     N          -0.366457           
         N20       1.0000    0.57530   0.33110   0.48300   Biso      1.000     N          -0.37397  
         N21       1.0000    0.40260   0.61030   0.31750   Biso      1.000     N          -0.353531           
         N22       1.0000    0.36860   0.32580   0.88970   Biso      1.000     N          -0.284949           
         N23       1.0000    0.36860   0.67420   0.38970   Biso      1.000     N          -0.284949           
         N24       1.0000    0.07530   0.16890   0.98300   Biso      1.000     N          -0.37397  
         O1        1.0000    0.40310   0.93750   0.48290   Biso      1.000     O          -0.790786           
         O2        1.0000    0.23940   0.77870   0.62600   Biso      1.000     O          -0.498129           
         O3        1.0000    0.16150   0.95090   0.77280   Biso      1.000     O          -0.532765           
         O4        1.0000    0.69560   0.77670   0.83260   Biso      1.000     O          -0.505123           
         O5        1.0000    0.35120   0.83120   0.69910   Biso      1.000     O          -0.744618           
         O6        1.0000    0.78180   0.05410   0.10820   Biso      1.000     O          -0.50525  
         O7        1.0000    0.78180   0.94590   0.60820   Biso      1.000     O          -0.50525  
         O8        1.0000    0.63160   0.90840   0.59690   Biso      1.000     O          -0.74488  
         O9        1.0000    0.13160   0.59160   0.09690   Biso      1.000     O          -0.74488  
         O10       1.0000    0.81470   0.58390   0.27600   Biso      1.000     O          -0.769434           
         O11       1.0000    0.66150   0.54910   0.27280   Biso      1.000     O          -0.532765           
         O12       1.0000    0.73940   0.72130   0.12600   Biso      1.000     O          -0.498129           
         O13       1.0000    0.90310   0.56250   0.98290   Biso      1.000     O          -0.790786           
         O14       1.0000    0.19560   0.72330   0.33260   Biso      1.000     O          -0.505123           
         O15       1.0000    0.85120   0.66880   0.19910   Biso      1.000     O          -0.744618           
         O16       1.0000    0.08680   0.67400   0.20480   Biso      1.000     O          -0.708181           
         O17       1.0000    0.28180   0.55410   0.10820   Biso      1.000     O          -0.50525  
         O18       1.0000    0.63160   0.09160   0.09690   Biso      1.000     O          -0.74488  
         O19       1.0000    0.31470   0.08390   0.27600   Biso      1.000     O          -0.769434           
         O20       1.0000    0.16150   0.04910   0.27280   Biso      1.000     O          -0.532765           
         O21       1.0000    0.23940   0.22130   0.12600   Biso      1.000     O          -0.498129           
         O22       1.0000    0.31470   0.91610   0.77600   Biso      1.000     O          -0.769434           
         O23       1.0000    0.40310   0.06250   0.98290   Biso      1.000     O          -0.790786           
         O24       1.0000    0.35120   0.16880   0.19910   Biso      1.000     O          -0.744618           
         O25       1.0000    0.28180   0.44590   0.60820   Biso      1.000     O          -0.50525  
         O26       1.0000    0.08680   0.32600   0.70480   Biso      1.000     O          -0.708181           
         O27       1.0000    0.85120   0.33120   0.69910   Biso      1.000     O          -0.744618           
         O28       1.0000    0.19560   0.27670   0.83260   Biso      1.000     O          -0.505123           
         O29       1.0000    0.90310   0.43750   0.48290   Biso      1.000     O          -0.790786           
         O30       1.0000    0.69560   0.22330   0.33260   Biso      1.000     O          -0.505123           
         O31       1.0000    0.73940   0.27870   0.62600   Biso      1.000     O          -0.498129           
         O32       1.0000    0.81470   0.41610   0.77600   Biso      1.000     O          -0.769434           
         O33       1.0000    0.13160   0.40840   0.59690   Biso      1.000     O          -0.74488  
         O34       1.0000    0.58680   0.82600   0.70480   Biso      1.000     O          -0.708181           
         O35       1.0000    0.58680   0.17400   0.20480   Biso      1.000     O          -0.708181           
         O36       1.0000    0.66150   0.45090   0.77280   Biso      1.000     O          -0.532765           
         Tb1       1.0000    0.47132   0.11501   0.18995   Biso      1.000     Tb          2.235485  
         Tb2       1.0000    0.97132   0.38499   0.68995   Biso      1.000     Tb          2.235485  
         Tb3       1.0000    0.47132   0.88499   0.68995   Biso      1.000     Tb          2.235485  
         Tb4       1.0000    0.97132   0.61501   0.18995   Biso      1.000     Tb          2.235485 