
##########################################################################
#               Crystallographic Information Format file
#               Produced by PyCifRW module
#
#  This is a CIF file.  CIF has been adopted by the International
#  Union of Crystallography as the standard for data archiving and
#  transmission.
#
#  For information on this file format, follow the CIF links at
#  http://www.iucr.org
##########################################################################

data_image0

_cell_length_a                          12.5087
_cell_length_b                          32.165
_cell_length_c                          7.6022
_cell_angle_alpha                       90
_cell_angle_beta                        98.833
_cell_angle_gamma                       90
_symmetry_space_group_name_H-M          'P 1'
_symmetry_int_tables_number             1
loop_
  _symmetry_equiv_pos_as_xyz
         'x, y, z' 
loop_
  _atom_site_label
  _atom_site_occupancy
  _atom_site_fract_x
  _atom_site_fract_y
  _atom_site_fract_z
  _atom_site_thermal_displace_type
  _atom_site_B_iso_or_equiv
  _atom_site_type_symbol
  _atom_site_charge
         C1        1.0000    0.83460   0.17550   0.86830   Biso      1.000     C          -0.194208           
         C2        1.0000    0.27300   0.34120   0.79650   Biso      1.000     C          0.011632  
         C3        1.0000    0.65140   0.38820   0.61330   Biso      1.000     C          -0.042664           
         C4        1.0000    0.29670   0.38020   0.75260   Biso      1.000     C          -0.002392           
         C5        1.0000    0.11180   0.81470   0.00730   Biso      1.000     C          -0.190266           
         C6        1.0000    0.84980   0.89540   0.26940   Biso      1.000     C          -0.151844           
         C7        1.0000    0.67860   0.18710   0.27540   Biso      1.000     C          0.637102  
         C8        1.0000    0.83460   0.82450   0.36830   Biso      1.000     C          -0.194211           
         C9        1.0000    0.10660   0.11330   0.58140   Biso      1.000     C          -0.151623           
         C10       1.0000    0.26130   0.81680   0.63800   Biso      1.000     C          0.637103  
         C11       1.0000    0.84980   0.10460   0.76940   Biso      1.000     C          -0.151842           
         C12       1.0000    0.11180   0.18530   0.50730   Biso      1.000     C          -0.190263           
         C13       1.0000    0.10660   0.88670   0.08140   Biso      1.000     C          -0.151625           
         C14       1.0000    0.72870   0.17490   0.77950   Biso      1.000     C          0.098106  
         C15       1.0000    0.05630   0.14840   0.49600   Biso      1.000     C          0.047014  
         C16       1.0000    0.89650   0.13950   0.86570   Biso      1.000     C          0.05038   
         C17       1.0000    0.21680   0.18590   0.60160   Biso      1.000     C          0.107543  
         C18       1.0000    0.73250   0.08630   0.14850   Biso      1.000     C          0.624375  
         C19       1.0000    0.21580   0.08050   0.22870   Biso      1.000     C          0.605651  
         C20       1.0000    0.26130   0.18320   0.13800   Biso      1.000     C          0.637102  
         C21       1.0000    0.00720   0.13760   0.95720   Biso      1.000     C          0.297381  
         C22       1.0000    0.74390   0.10740   0.68690   Biso      1.000     C          0.071457  
         C23       1.0000    0.94500   0.14400   0.40030   Biso      1.000     C          0.32625   
         C24       1.0000    0.16850   0.15420   0.07950   Biso      1.000     C          -0.028879           
         C25       1.0000    0.21200   0.11680   0.67070   Biso      1.000     C          0.061994  
         C26       1.0000    0.77300   0.15880   0.29650   Biso      1.000     C          0.01163   
         C27       1.0000    0.71200   0.38320   0.17070   Biso      1.000     C          0.061991  
         C28       1.0000    0.66850   0.34580   0.57950   Biso      1.000     C          -0.028877           
         C29       1.0000    0.44500   0.35600   0.90030   Biso      1.000     C          0.32625   
         C30       1.0000    0.24390   0.39260   0.18690   Biso      1.000     C          0.071452  
         C31       1.0000    0.00720   0.86240   0.45720   Biso      1.000     C          0.297383  
         C32       1.0000    0.74390   0.89260   0.18690   Biso      1.000     C          0.071455  
         C33       1.0000    0.94500   0.85600   0.90030   Biso      1.000     C          0.326247  
         C34       1.0000    0.16850   0.84580   0.57950   Biso      1.000     C          -0.028879           
         C35       1.0000    0.21200   0.88320   0.17070   Biso      1.000     C          0.061992  
         C36       1.0000    0.77300   0.84120   0.79650   Biso      1.000     C          0.011634  
         C37       1.0000    0.15140   0.88820   0.61330   Biso      1.000     C          -0.042662           
         C38       1.0000    0.79670   0.88020   0.75260   Biso      1.000     C          -0.002394           
         C39       1.0000    0.73250   0.91370   0.64850   Biso      1.000     C          0.624377  
         C40       1.0000    0.21680   0.81410   0.10160   Biso      1.000     C          0.107544  
         C41       1.0000    0.89650   0.86050   0.36570   Biso      1.000     C          0.050379  
         C42       1.0000    0.17860   0.31290   0.77540   Biso      1.000     C          0.637101  
         C43       1.0000    0.15140   0.11180   0.11330   Biso      1.000     C          -0.042661           
         C44       1.0000    0.05630   0.85160   0.99600   Biso      1.000     C          0.047015  
         C45       1.0000    0.33460   0.32450   0.36830   Biso      1.000     C          -0.194206           
         C46       1.0000    0.72870   0.82510   0.27950   Biso      1.000     C          0.098114  
         C47       1.0000    0.34980   0.39540   0.26940   Biso      1.000     C          -0.151841           
         C48       1.0000    0.61180   0.31470   0.00730   Biso      1.000     C          -0.190261           
         C49       1.0000    0.22870   0.32510   0.27950   Biso      1.000     C          0.098109  
         C50       1.0000    0.55630   0.35160   0.99600   Biso      1.000     C          0.047013  
         C51       1.0000    0.39650   0.36050   0.36570   Biso      1.000     C          0.05038   
         C52       1.0000    0.71680   0.31410   0.10160   Biso      1.000     C          0.107545  
         C53       1.0000    0.23250   0.41370   0.64850   Biso      1.000     C          0.624376  
         C54       1.0000    0.71580   0.41950   0.72870   Biso      1.000     C          0.605652  
         C55       1.0000    0.76130   0.31680   0.63800   Biso      1.000     C          0.637101  
         C56       1.0000    0.50720   0.36240   0.45720   Biso      1.000     C          0.297382  
         C57       1.0000    0.60660   0.38670   0.08140   Biso      1.000     C          -0.151624           
         C58       1.0000    0.79670   0.11980   0.25260   Biso      1.000     C          -0.002391           
         C59       1.0000    0.21580   0.91950   0.72870   Biso      1.000     C          0.605652  
         C60       1.0000    0.24390   0.60740   0.68690   Biso      1.000     C          0.071454  
         C61       1.0000    0.22870   0.67490   0.77950   Biso      1.000     C          0.098113  
         C62       1.0000    0.55630   0.64840   0.49600   Biso      1.000     C          0.047006  
         C63       1.0000    0.39650   0.63950   0.86570   Biso      1.000     C          0.050371  
         C64       1.0000    0.71680   0.68590   0.60160   Biso      1.000     C          0.107544  
         C65       1.0000    0.23250   0.58630   0.14850   Biso      1.000     C          0.624376  
         C66       1.0000    0.71580   0.58050   0.22870   Biso      1.000     C          0.605651  
         C67       1.0000    0.76130   0.68320   0.13800   Biso      1.000     C          0.637085  
         C68       1.0000    0.50720   0.63760   0.95720   Biso      1.000     C          0.297391  
         C69       1.0000    0.33460   0.67550   0.86830   Biso      1.000     C          -0.194205           
         C70       1.0000    0.44500   0.64400   0.40030   Biso      1.000     C          0.326247  
         C71       1.0000    0.17860   0.68710   0.27540   Biso      1.000     C          0.6371    
         C72       1.0000    0.66850   0.65420   0.07950   Biso      1.000     C          -0.028876           
         C73       1.0000    0.60660   0.61330   0.58140   Biso      1.000     C          -0.151627           
         C74       1.0000    0.61180   0.68530   0.50730   Biso      1.000     C          -0.190258           
         C75       1.0000    0.71200   0.61680   0.67070   Biso      1.000     C          0.061989  
         C76       1.0000    0.27300   0.65880   0.29650   Biso      1.000     C          0.011633  
         C77       1.0000    0.65140   0.61180   0.11330   Biso      1.000     C          -0.042656           
         C78       1.0000    0.29670   0.61980   0.25260   Biso      1.000     C          -0.002394           
         C79       1.0000    0.67860   0.81290   0.77540   Biso      1.000     C          0.637102  
         C80       1.0000    0.34980   0.60460   0.76940   Biso      1.000     C          -0.151837           
         Cd1       1.0000    0.07617   0.23764   0.94249   Biso      1.000     Cd          0.8983    
         Cd2       1.0000    0.97282   0.94930   0.68975   Biso      1.000     Cd          0.927932  
         Cd3       1.0000    0.57617   0.73763   0.94249   Biso      1.000     Cd          0.898291  
         Cd4       1.0000    0.47282   0.44930   0.68975   Biso      1.000     Cd          0.927932  
         Cd5       1.0000    0.07617   0.76236   0.44249   Biso      1.000     Cd          0.8983    
         Cd6       1.0000    0.97282   0.05070   0.18975   Biso      1.000     Cd          0.927928  
         Cd7       1.0000    0.47282   0.55070   0.18975   Biso      1.000     Cd          0.927929  
         Cd8       1.0000    0.57617   0.26236   0.44249   Biso      1.000     Cd          0.898299  
         Cl1       1.0000    0.97405   0.26666   0.16360   Biso      1.000     Cl          -0.528645           
         Cl2       1.0000    0.95875   0.01255   0.48860   Biso      1.000     Cl          -0.545891           
         Cl3       1.0000    0.45875   0.48745   0.98860   Biso      1.000     Cl          -0.54589  
         Cl4       1.0000    0.45875   0.51255   0.48860   Biso      1.000     Cl          -0.545892           
         Cl5       1.0000    0.47405   0.76666   0.16360   Biso      1.000     Cl          -0.528692           
         Cl6       1.0000    0.97405   0.73334   0.66360   Biso      1.000     Cl          -0.528647           
         Cl7       1.0000    0.47405   0.23334   0.66360   Biso      1.000     Cl          -0.528642           
         Cl8       1.0000    0.95875   0.98745   0.98860   Biso      1.000     Cl          -0.54589  
         Dy1       1.0000    0.47101   0.88504   0.69016   Biso      1.000     Dy          2.242217  
         Dy2       1.0000    0.97101   0.38504   0.69016   Biso      1.000     Dy          2.242217  
         Dy3       1.0000    0.97101   0.61496   0.19016   Biso      1.000     Dy          2.242217  
         Dy4       1.0000    0.47101   0.11496   0.19016   Biso      1.000     Dy          2.242217  
         H1        1.0000    0.88960   0.91960   0.26210   Biso      1.000     H          0.135962  
         H2        1.0000    0.18770   0.30100   0.28020   Biso      1.000     H          0.092365  
         H3        1.0000    0.68770   0.80100   0.28020   Biso      1.000     H          0.092365  
         H4        1.0000    0.58040   0.29070   0.95360   Biso      1.000     H          0.126374  
         H5        1.0000    0.68770   0.19900   0.78020   Biso      1.000     H          0.092364  
         H6        1.0000    0.21340   0.58440   0.62380   Biso      1.000     H          0.089094  
         H7        1.0000    0.37990   0.69950   0.43520   Biso      1.000     H          0.330879  
         H8        1.0000    0.36320   0.30080   0.42780   Biso      1.000     H          0.114205  
         H9        1.0000    0.57000   0.41200   0.07840   Biso      1.000     H          0.131633  
         H10       1.0000    0.25450   0.21090   0.60620   Biso      1.000     H          0.092676  
         H11       1.0000    0.88500   0.46410   0.52330   Biso      1.000     H          0.462109  
         H12       1.0000    0.83820   0.42810   0.50750   Biso      1.000     H          0.383423  
         H13       1.0000    0.37990   0.30050   0.93520   Biso      1.000     H          0.330877  
         H14       1.0000    0.74690   0.59330   0.72270   Biso      1.000     H          0.087117  
         H15       1.0000    0.87990   0.80050   0.93520   Biso      1.000     H          0.330875  
         H16       1.0000    0.25450   0.78910   0.10620   Biso      1.000     H          0.092676  
         H17       1.0000    0.33820   0.92810   0.50750   Biso      1.000     H          0.383422  
         H18       1.0000    0.38500   0.96410   0.52330   Biso      1.000     H          0.462108  
         H19       1.0000    0.71340   0.08440   0.62380   Biso      1.000     H          0.089093  
         H20       1.0000    0.07000   0.91200   0.07840   Biso      1.000     H          0.131633  
         H21       1.0000    0.24690   0.09330   0.72270   Biso      1.000     H          0.087117  
         H22       1.0000    0.24690   0.90670   0.22270   Biso      1.000     H          0.087116  
         H23       1.0000    0.71340   0.91560   0.12380   Biso      1.000     H          0.089092  
         H24       1.0000    0.83820   0.57190   0.00750   Biso      1.000     H          0.383422  
         H25       1.0000    0.75450   0.28910   0.10620   Biso      1.000     H          0.092677  
         H26       1.0000    0.38960   0.41960   0.26210   Biso      1.000     H          0.135962  
         H27       1.0000    0.88500   0.53590   0.02330   Biso      1.000     H          0.46211   
         H28       1.0000    0.08040   0.20930   0.45360   Biso      1.000     H          0.126373  
         H29       1.0000    0.38500   0.03590   0.02330   Biso      1.000     H          0.462111  
         H30       1.0000    0.38960   0.58040   0.76210   Biso      1.000     H          0.135962  
         H31       1.0000    0.07000   0.08800   0.57840   Biso      1.000     H          0.131634  
         H32       1.0000    0.58040   0.70930   0.45360   Biso      1.000     H          0.126377  
         H33       1.0000    0.57000   0.58800   0.57840   Biso      1.000     H          0.131633  
         H34       1.0000    0.74690   0.40670   0.22270   Biso      1.000     H          0.087116  
         H35       1.0000    0.86320   0.19920   0.92780   Biso      1.000     H          0.114204  
         H36       1.0000    0.18770   0.69900   0.78020   Biso      1.000     H          0.092367  
         H37       1.0000    0.87990   0.19950   0.43520   Biso      1.000     H          0.330876  
         H38       1.0000    0.33820   0.07190   0.00750   Biso      1.000     H          0.383422  
         H39       1.0000    0.86320   0.80080   0.42780   Biso      1.000     H          0.114203  
         H40       1.0000    0.88960   0.08040   0.76210   Biso      1.000     H          0.135963  
         H41       1.0000    0.75450   0.71090   0.60620   Biso      1.000     H          0.092681  
         H42       1.0000    0.08040   0.79070   0.95360   Biso      1.000     H          0.126372  
         H43       1.0000    0.36320   0.69920   0.92780   Biso      1.000     H          0.114204  
         H44       1.0000    0.21340   0.41560   0.12380   Biso      1.000     H          0.089092  
         N1        1.0000    0.57680   0.66849   0.98170   Biso      1.000     N          -0.365735           
         N2        1.0000    0.68220   0.85850   0.19280   Biso      1.000     N          -0.331866           
         N3        1.0000    0.90360   0.11010   0.31720   Biso      1.000     N          -0.353134           
         N4        1.0000    0.87010   0.17490   0.39140   Biso      1.000     N          -0.310428           
         N5        1.0000    0.04900   0.89810   0.53580   Biso      1.000     N          -0.369431           
         N6        1.0000    0.54900   0.60190   0.03580   Biso      1.000     N          -0.369425           
         N7        1.0000    0.04900   0.10190   0.03580   Biso      1.000     N          -0.36943  
         N8        1.0000    0.54900   0.39810   0.53580   Biso      1.000     N          -0.369433           
         N9        1.0000    0.26570   0.84590   0.18350   Biso      1.000     N          -0.295162           
         N10       1.0000    0.07680   0.83151   0.48170   Biso      1.000     N          -0.365746           
         N11       1.0000    0.68220   0.14150   0.69280   Biso      1.000     N          -0.331874           
         N12       1.0000    0.26570   0.15410   0.68350   Biso      1.000     N          -0.295166           
         N13       1.0000    0.18220   0.64150   0.69280   Biso      1.000     N          -0.331869           
         N14       1.0000    0.76570   0.65410   0.68350   Biso      1.000     N          -0.295166           
         N15       1.0000    0.18220   0.35850   0.19280   Biso      1.000     N          -0.331873           
         N16       1.0000    0.76570   0.34590   0.18350   Biso      1.000     N          -0.295165           
         N17       1.0000    0.37010   0.67490   0.39140   Biso      1.000     N          -0.310426           
         N18       1.0000    0.87010   0.82510   0.89140   Biso      1.000     N          -0.310428           
         N19       1.0000    0.07680   0.16849   0.98170   Biso      1.000     N          -0.365746           
         N20       1.0000    0.40360   0.61010   0.31720   Biso      1.000     N          -0.353138           
         N21       1.0000    0.37010   0.32510   0.89140   Biso      1.000     N          -0.310427           
         N22       1.0000    0.40360   0.38990   0.81720   Biso      1.000     N          -0.353137           
         N23       1.0000    0.57680   0.33151   0.48170   Biso      1.000     N          -0.365744           
         N24       1.0000    0.90360   0.88990   0.81720   Biso      1.000     N          -0.353138           
         O1        1.0000    0.40420   0.93799   0.48540   Biso      1.000     O          -0.794254           
         O2        1.0000    0.16190   0.95072   0.77320   Biso      1.000     O          -0.525888           
         O3        1.0000    0.69610   0.77705   0.83430   Biso      1.000     O          -0.488999           
         O4        1.0000    0.35290   0.83150   0.69450   Biso      1.000     O          -0.74081  
         O5        1.0000    0.24080   0.77865   0.62680   Biso      1.000     O          -0.506587           
         O6        1.0000    0.78300   0.05400   0.11240   Biso      1.000     O          -0.50402  
         O7        1.0000    0.63290   0.90870   0.59880   Biso      1.000     O          -0.752744           
         O8        1.0000    0.13290   0.59130   0.09880   Biso      1.000     O          -0.752743           
         O9        1.0000    0.81600   0.58418   0.27560   Biso      1.000     O          -0.77567  
         O10       1.0000    0.66190   0.54928   0.27320   Biso      1.000     O          -0.52588  
         O11       1.0000    0.74080   0.72135   0.12680   Biso      1.000     O          -0.506548           
         O12       1.0000    0.90420   0.56201   0.98540   Biso      1.000     O          -0.794253           
         O13       1.0000    0.19610   0.72295   0.33430   Biso      1.000     O          -0.488982           
         O14       1.0000    0.85290   0.66850   0.19450   Biso      1.000     O          -0.740809           
         O15       1.0000    0.08760   0.67335   0.20800   Biso      1.000     O          -0.739119           
         O16       1.0000    0.28300   0.55400   0.11240   Biso      1.000     O          -0.504023           
         O17       1.0000    0.63290   0.09130   0.09880   Biso      1.000     O          -0.752743           
         O18       1.0000    0.31600   0.08418   0.27560   Biso      1.000     O          -0.775673           
         O19       1.0000    0.16190   0.04928   0.27320   Biso      1.000     O          -0.525883           
         O20       1.0000    0.24080   0.22135   0.12680   Biso      1.000     O          -0.506584           
         O21       1.0000    0.40420   0.06201   0.98540   Biso      1.000     O          -0.794254           
         O22       1.0000    0.69610   0.22295   0.33430   Biso      1.000     O          -0.48899  
         O23       1.0000    0.35290   0.16850   0.19450   Biso      1.000     O          -0.740816           
         O24       1.0000    0.58760   0.17335   0.20800   Biso      1.000     O          -0.739118           
         O25       1.0000    0.58760   0.82665   0.70800   Biso      1.000     O          -0.739119           
         O26       1.0000    0.13290   0.40870   0.59880   Biso      1.000     O          -0.752743           
         O27       1.0000    0.81600   0.41582   0.77560   Biso      1.000     O          -0.775674           
         O28       1.0000    0.66190   0.45072   0.77320   Biso      1.000     O          -0.525889           
         O29       1.0000    0.74080   0.27865   0.62680   Biso      1.000     O          -0.506579           
         O30       1.0000    0.90420   0.43799   0.48540   Biso      1.000     O          -0.794254           
         O31       1.0000    0.19610   0.27705   0.83430   Biso      1.000     O          -0.488987           
         O32       1.0000    0.85290   0.33150   0.69450   Biso      1.000     O          -0.740815           
         O33       1.0000    0.08760   0.32665   0.70800   Biso      1.000     O          -0.739118           
         O34       1.0000    0.28300   0.44600   0.61240   Biso      1.000     O          -0.504026           
         O35       1.0000    0.31600   0.91582   0.77560   Biso      1.000     O          -0.775673           
         O36       1.0000    0.78300   0.94600   0.61240   Biso      1.000     O          -0.504027 