
##########################################################################
#               Crystallographic Information Format file
#               Produced by PyCifRW module
#
#  This is a CIF file.  CIF has been adopted by the International
#  Union of Crystallography as the standard for data archiving and
#  transmission.
#
#  For information on this file format, follow the CIF links at
#  http://www.iucr.org
##########################################################################

data_image0

_cell_length_a                          8.8649
_cell_length_b                          10.5565
_cell_length_c                          10.631
_cell_angle_alpha                       99.986
_cell_angle_beta                        110.233
_cell_angle_gamma                       97.819
_symmetry_space_group_name_H-M          'P 1'
_symmetry_int_tables_number             1
loop_
  _symmetry_equiv_pos_as_xyz
         'x, y, z' 
loop_
  _atom_site_label
  _atom_site_occupancy
  _atom_site_fract_x
  _atom_site_fract_y
  _atom_site_fract_z
  _atom_site_thermal_displace_type
  _atom_site_B_iso_or_equiv
  _atom_site_type_symbol
  _atom_site_charge
         B1        1.0000    0.13740   0.18780   0.89610   Biso      1.000     B          0.506989  
         B2        1.0000    0.86260   0.81220   0.10390   Biso      1.000     B          0.506989  
         C1        1.0000    0.19170   0.96260   0.80600   Biso      1.000     C          0.108358  
         C2        1.0000    0.95080   0.98930   0.68490   Biso      1.000     C          -0.095301           
         C3        1.0000    0.15590   0.76050   0.15170   Biso      1.000     C          -0.085743           
         C4        1.0000    0.97240   0.87050   0.63060   Biso      1.000     C          -0.031055000000000003         
         C5        1.0000    0.28050   0.28390   0.74560   Biso      1.000     C          -0.096209           
         C6        1.0000    0.01240   0.75370   0.93700   Biso      1.000     C          0.138099  
         C7        1.0000    0.31850   0.40570   0.72440   Biso      1.000     C          -0.042916           
         C8        1.0000    0.53790   0.86860   0.79890   Biso      1.000     C          -0.050259           
         C9        1.0000    0.84410   0.23950   0.84830   Biso      1.000     C          -0.085743           
         C10       1.0000    0.46210   0.13140   0.20110   Biso      1.000     C          -0.050259           
         C11       1.0000    0.24160   0.72510   0.07200   Biso      1.000     C          -0.063753           
         C12       1.0000    0.75840   0.27490   0.92800   Biso      1.000     C          -0.063753           
         C13       1.0000    0.71950   0.71610   0.25440   Biso      1.000     C          -0.096209           
         C14       1.0000    0.80830   0.03740   0.19400   Biso      1.000     C          0.108358  
         C15       1.0000    0.68150   0.59430   0.27560   Biso      1.000     C          -0.042916           
         C16       1.0000    0.92960   0.48810   0.52690   Biso      1.000     C          0.468735  
         C17       1.0000    0.07040   0.51190   0.47310   Biso      1.000     C          0.468736  
         C18       1.0000    0.56270   0.73220   0.92970   Biso      1.000     C          0.125113  
         C19       1.0000    0.17490   0.42030   0.85100   Biso      1.000     C          0.140466  
         C20       1.0000    0.30170   0.10230   0.11190   Biso      1.000     C          -0.087756           
         C21       1.0000    0.69830   0.89770   0.88810   Biso      1.000     C          -0.087756           
         C22       1.0000    0.43730   0.26780   0.07030   Biso      1.000     C          0.125113  
         C23       1.0000    0.98760   0.24630   0.06300   Biso      1.000     C          0.138099  
         C24       1.0000    0.02760   0.12950   0.36940   Biso      1.000     C          -0.03107  
         C25       1.0000    0.04920   0.01070   0.31510   Biso      1.000     C          -0.095286           
         C26       1.0000    0.82510   0.57970   0.14900   Biso      1.000     C          0.140466  
         H1        1.0000    0.19040   0.76970   0.24650   Biso      1.000     H          0.130027  
         H2        1.0000    0.88110   0.54610   0.09570   Biso      1.000     H          0.092847  
         H3        1.0000    0.78160   0.96370   0.89140   Biso      1.000     H          0.113953  
         H4        1.0000    0.34600   0.70670   0.10420   Biso      1.000     H          0.103816  
         H5        1.0000    0.53870   0.66370   0.96890   Biso      1.000     H          0.089429  
         H6        1.0000    0.70330   0.02200   0.12640   Biso      1.000     H          0.081424  
         H7        1.0000    0.49290   0.91250   0.73080   Biso      1.000     H          0.116674  
         H8        1.0000    0.38020   0.42770   0.67330   Biso      1.000     H          0.129724  
         H9        1.0000    0.92740   0.75820   0.85770   Biso      1.000     H          0.099602  
         H10       1.0000    0.85730   0.02370   0.65230   Biso      1.000     H          0.119502  
         H11       1.0000    0.14270   0.97630   0.34770   Biso      1.000     H          0.119501  
         H12       1.0000    0.10380   0.19000   0.44760   Biso      1.000     H          0.111399  
         H13       1.0000    0.68870   0.79150   0.28810   Biso      1.000     H          0.121754  
         H14       1.0000    0.46130   0.33630   0.03110   Biso      1.000     H          0.089429  
         H15       1.0000    0.21840   0.03630   0.10860   Biso      1.000     H          0.113953  
         H16       1.0000    0.61980   0.57230   0.32670   Biso      1.000     H          0.129724  
         H17       1.0000    0.11890   0.45390   0.90430   Biso      1.000     H          0.092847  
         H18       1.0000    0.29670   0.97800   0.87360   Biso      1.000     H          0.081424  
         H19       1.0000    0.65400   0.29330   0.89580   Biso      1.000     H          0.103815  
         H20       1.0000    0.50710   0.08750   0.26920   Biso      1.000     H          0.116674  
         H21       1.0000    0.80960   0.23030   0.75350   Biso      1.000     H          0.130027  
         H22       1.0000    0.31130   0.20850   0.71190   Biso      1.000     H          0.121754  
         H23       1.0000    0.89620   0.81000   0.55240   Biso      1.000     H          0.111398  
         H24       1.0000    0.07260   0.24180   0.14230   Biso      1.000     H          0.099602  
         N1        1.0000    0.87590   0.14670   0.29120   Biso      1.000     N          -0.266532           
         N2        1.0000    0.25030   0.49190   0.79140   Biso      1.000     N          -0.271728           
         N3        1.0000    0.74970   0.50810   0.20860   Biso      1.000     N          -0.271728           
         N4        1.0000    0.90670   0.94990   0.20240   Biso      1.000     N          -0.197939           
         N5        1.0000    0.18770   0.29320   0.82650   Biso      1.000     N          -0.203772           
         N6        1.0000    0.28630   0.18980   0.02680   Biso      1.000     N          -0.200416           
         N7        1.0000    0.54740   0.23690   0.17420   Biso      1.000     N          -0.244213           
         N8        1.0000    0.09330   0.05010   0.79760   Biso      1.000     N          -0.197938           
         N9        1.0000    0.99250   0.21970   0.93470   Biso      1.000     N          -0.200152           
         N10       1.0000    0.00750   0.78030   0.06530   Biso      1.000     N          -0.200152           
         N11       1.0000    0.84930   0.27930   0.06280   Biso      1.000     N          -0.26661599999999996          
         N12       1.0000    0.12410   0.85330   0.70880   Biso      1.000     N          -0.266533           
         N13       1.0000    0.81230   0.70680   0.17350   Biso      1.000     N          -0.203772           
         N14       1.0000    0.71370   0.81020   0.97320   Biso      1.000     N          -0.200416           
         N15       1.0000    0.45260   0.76310   0.82580   Biso      1.000     N          -0.244213           
         N16       1.0000    0.15070   0.72070   0.93720   Biso      1.000     N          -0.26661599999999996          
         O1        1.0000    0.19010   0.60490   0.54470   Biso      1.000     O          -0.53292  
         O2        1.0000    0.05290   0.43560   0.36220   Biso      1.000     O          -0.543013           
         O3        1.0000    0.94710   0.56440   0.63780   Biso      1.000     O          -0.543013           
         O4        1.0000    0.80990   0.39510   0.45530   Biso      1.000     O          -0.53292  
         Zn1       1.0000    0.20230   0.67806   0.75122   Biso      1.000     Zn          0.682384  
         Zn2       1.0000    0.79770   0.32194   0.24878   Biso      1.000     Zn          0.682384 