
##########################################################################
#               Crystallographic Information Format file
#               Produced by PyCifRW module
#
#  This is a CIF file.  CIF has been adopted by the International
#  Union of Crystallography as the standard for data archiving and
#  transmission.
#
#  For information on this file format, follow the CIF links at
#  http://www.iucr.org
##########################################################################

data_image0

_cell_length_a                          8.997
_cell_length_b                          10.5163
_cell_length_c                          10.686
_cell_angle_alpha                       98.008
_cell_angle_beta                        97.436
_cell_angle_gamma                       111.11
_symmetry_space_group_name_H-M          'P 1'
_symmetry_int_tables_number             1
loop_
  _symmetry_equiv_pos_as_xyz
         'x, y, z' 
loop_
  _atom_site_label
  _atom_site_occupancy
  _atom_site_fract_x
  _atom_site_fract_y
  _atom_site_fract_z
  _atom_site_thermal_displace_type
  _atom_site_B_iso_or_equiv
  _atom_site_type_symbol
  _atom_site_charge
         B1        1.0000    0.13600   0.89460   0.69010   Biso      1.000     B          0.506813  
         B2        1.0000    0.86400   0.10540   0.30990   Biso      1.000     B          0.506811  
         C1        1.0000    0.81150   0.20360   0.52640   Biso      1.000     C          0.108181  
         C2        1.0000    0.67580   0.27030   0.08900   Biso      1.000     C          -0.044886           
         C3        1.0000    0.14840   0.15490   0.24650   Biso      1.000     C          -0.083432           
         C4        1.0000    0.05690   0.31430   0.49940   Biso      1.000     C          -0.09353500000000001          
         C5        1.0000    0.03680   0.37120   0.61500   Biso      1.000     C          -0.040714           
         C6        1.0000    0.18850   0.79640   0.47360   Biso      1.000     C          0.10818900000000001           
         C7        1.0000    0.85160   0.84510   0.75350   Biso      1.000     C          -0.083427           
         C8        1.0000    0.32420   0.72970   0.91100   Biso      1.000     C          -0.044888           
         C9        1.0000    0.28020   0.74550   0.78960   Biso      1.000     C          -0.094467           
         C10       1.0000    0.76450   0.92350   0.78330   Biso      1.000     C          -0.068576           
         C11       1.0000    0.43090   0.07360   0.76170   Biso      1.000     C          0.12371800000000001           
         C12       1.0000    0.06750   0.47030   0.01050   Biso      1.000     C          0.45457700000000006           
         C13       1.0000    0.29850   0.10980   0.59410   Biso      1.000     C          -0.08993  
         C14       1.0000    0.18330   0.85640   0.92330   Biso      1.000     C          0.13256700000000002           
         C15       1.0000    0.98460   0.05930   0.73800   Biso      1.000     C          0.135252  
         C16       1.0000    0.71980   0.25450   0.21040   Biso      1.000     C          -0.094467           
         C17       1.0000    0.23550   0.07650   0.21670   Biso      1.000     C          -0.068579           
         C18       1.0000    0.45510   0.20260   0.62060   Biso      1.000     C          -0.055555999999999994         
         C19       1.0000    0.54490   0.79740   0.37940   Biso      1.000     C          -0.055585           
         C20       1.0000    0.96320   0.62880   0.38500   Biso      1.000     C          -0.040718           
         C21       1.0000    0.70150   0.89020   0.40590   Biso      1.000     C          -0.089929           
         C22       1.0000    0.01540   0.94070   0.26200   Biso      1.000     C          0.135241  
         C23       1.0000    0.94310   0.68570   0.50060   Biso      1.000     C          -0.093521           
         C24       1.0000    0.93250   0.52970   0.98950   Biso      1.000     C          0.454583  
         C25       1.0000    0.56910   0.92640   0.23830   Biso      1.000     C          0.12370199999999999           
         C26       1.0000    0.81670   0.14360   0.07670   Biso      1.000     C          0.132574  
         H1        1.0000    0.33660   0.10940   0.19340   Biso      1.000     H          0.10793   
         H2        1.0000    0.54550   0.96390   0.16810   Biso      1.000     H          0.087517  
         H3        1.0000    0.30660   0.70880   0.71540   Biso      1.000     H          0.120848  
         H4        1.0000    0.49910   0.27140   0.57450   Biso      1.000     H          0.11587599999999999           
         H5        1.0000    0.29550   0.85980   0.48840   Biso      1.000     H          0.08447   
         H6        1.0000    0.45450   0.03610   0.83190   Biso      1.000     H          0.08752   
         H7        1.0000    0.84910   0.65700   0.53480   Biso      1.000     H          0.122787  
         H8        1.0000    0.21710   0.10370   0.52750   Biso      1.000     H          0.113357  
         H9        1.0000    0.66340   0.89060   0.80660   Biso      1.000     H          0.107929  
         H10       1.0000    0.38630   0.67930   0.93370   Biso      1.000     H          0.127538  
         H11       1.0000    0.82150   0.75070   0.75340   Biso      1.000     H          0.132296  
         H12       1.0000    0.88400   0.55380   0.32640   Biso      1.000     H          0.11511300000000001           
         H13       1.0000    0.78290   0.89630   0.47250   Biso      1.000     H          0.113352  
         H14       1.0000    0.11600   0.44620   0.67360   Biso      1.000     H          0.11510699999999999           
         H15       1.0000    0.15090   0.34300   0.46520   Biso      1.000     H          0.12278499999999999           
         H16       1.0000    0.87020   0.08920   0.04440   Biso      1.000     H          0.093142  
         H17       1.0000    0.70450   0.14020   0.51160   Biso      1.000     H          0.084468  
         H18       1.0000    0.06530   0.13820   0.72430   Biso      1.000     H          0.097398  
         H19       1.0000    0.17850   0.24930   0.24660   Biso      1.000     H          0.132297  
         H20       1.0000    0.61370   0.32070   0.06630   Biso      1.000     H          0.12753399999999998           
         H21       1.0000    0.93470   0.86180   0.27570   Biso      1.000     H          0.097398  
         H22       1.0000    0.69340   0.29120   0.28460   Biso      1.000     H          0.12084500000000001           
         H23       1.0000    0.50090   0.72860   0.42550   Biso      1.000     H          0.115873  
         H24       1.0000    0.12980   0.91080   0.95560   Biso      1.000     H          0.093144  
         Mn1       1.0000    0.79829   0.25395   0.81412   Biso      1.000     Mn          0.504263  
         Mn2       1.0000    0.20171   0.74605   0.18588   Biso      1.000     Mn          0.504123  
         N1        1.0000    0.84920   0.05900   0.77379   Biso      1.000     N          -0.239277           
         N2        1.0000    0.73750   0.20030   0.00425   Biso      1.000     N          -0.249154           
         N3        1.0000    0.08920   0.79450   0.55820   Biso      1.000     N          -0.196164           
         N4        1.0000    0.46130   0.82120   0.27313   Biso      1.000     N          -0.22479899999999997          
         N5        1.0000    0.81120   0.17345   0.20293   Biso      1.000     N          -0.201237           
         N6        1.0000    0.71750   0.97400   0.31517   Biso      1.000     N          -0.203224           
         N7        1.0000    0.91080   0.20550   0.44180   Biso      1.000     N          -0.196166           
         N8        1.0000    0.00710   0.06800   0.27652   Biso      1.000     N          -0.199846           
         N9        1.0000    0.99290   0.93200   0.72348   Biso      1.000     N          -0.199847           
         N10       1.0000    0.15080   0.94100   0.22621   Biso      1.000     N          -0.239263           
         N11       1.0000    0.11910   0.69950   0.36763   Biso      1.000     N          -0.24618099999999998          
         N12       1.0000    0.53870   0.17880   0.72687   Biso      1.000     N          -0.22482600000000003          
         N13       1.0000    0.18880   0.82655   0.79707   Biso      1.000     N          -0.201241           
         N14       1.0000    0.28250   0.02600   0.68483   Biso      1.000     N          -0.203216           
         N15       1.0000    0.88090   0.30050   0.63237   Biso      1.000     N          -0.246227           
         N16       1.0000    0.26250   0.79970   0.99575   Biso      1.000     N          -0.2491   
         O1        1.0000    0.05043   0.36390   0.93079   Biso      1.000     O          -0.482055           
         O2        1.0000    0.18134   0.53323   0.10528   Biso      1.000     O          -0.470525           
         O3        1.0000    0.81866   0.46677   0.89472   Biso      1.000     O          -0.47053599999999995          
         O4        1.0000    0.94957   0.63610   0.06921   Biso      1.000     O          -0.482025 