
##########################################################################
#               Crystallographic Information Format file
#               Produced by PyCifRW module
#
#  This is a CIF file.  CIF has been adopted by the International
#  Union of Crystallography as the standard for data archiving and
#  transmission.
#
#  For information on this file format, follow the CIF links at
#  http://www.iucr.org
##########################################################################

data_image0

_cell_length_a                          7.2255
_cell_length_b                          10.3053
_cell_length_c                          11.0499
_cell_angle_alpha                       90
_cell_angle_beta                        90
_cell_angle_gamma                       90
_symmetry_space_group_name_H-M          'P 1'
_symmetry_int_tables_number             1
loop_
  _symmetry_equiv_pos_as_xyz
         'x, y, z' 
loop_
  _atom_site_label
  _atom_site_occupancy
  _atom_site_fract_x
  _atom_site_fract_y
  _atom_site_fract_z
  _atom_site_thermal_displace_type
  _atom_site_B_iso_or_equiv
  _atom_site_type_symbol
  _atom_site_charge
         C1        1.0000    0.17260   0.53090   0.84510   Biso      1.000     C          0.624464  
         C2        1.0000    0.79320   0.91860   0.25690   Biso      1.000     C          -0.295675           
         C3        1.0000    0.94910   0.83120   0.21330   Biso      1.000     C          -0.222892           
         C4        1.0000    0.07890   0.78430   0.31100   Biso      1.000     C          0.038692  
         C5        1.0000    0.97190   0.71530   0.40980   Biso      1.000     C          0.602862  
         C6        1.0000    0.42110   0.21570   0.81100   Biso      1.000     C          0.038696  
         C7        1.0000    0.55090   0.16880   0.71330   Biso      1.000     C          -0.222881           
         C8        1.0000    0.70680   0.08140   0.75690   Biso      1.000     C          -0.29568  
         C9        1.0000    0.82740   0.03090   0.65490   Biso      1.000     C          0.62446   
         C10       1.0000    0.29320   0.58140   0.74310   Biso      1.000     C          -0.295676           
         C11       1.0000    0.52810   0.28470   0.90980   Biso      1.000     C          0.602863  
         C12       1.0000    0.02810   0.21530   0.09020   Biso      1.000     C          0.602868  
         C13       1.0000    0.92110   0.28430   0.18900   Biso      1.000     C          0.038695  
         C14       1.0000    0.05090   0.33120   0.28670   Biso      1.000     C          -0.222881           
         C15       1.0000    0.20680   0.41860   0.24310   Biso      1.000     C          -0.295679           
         C16       1.0000    0.32740   0.46910   0.34510   Biso      1.000     C          0.624461  
         C17       1.0000    0.47190   0.78470   0.59020   Biso      1.000     C          0.602861  
         C18       1.0000    0.57890   0.71570   0.68900   Biso      1.000     C          0.038691  
         C19       1.0000    0.44910   0.66880   0.78670   Biso      1.000     C          -0.222891           
         C20       1.0000    0.67260   0.96910   0.15490   Biso      1.000     C          0.624468  
         Cu1       1.0000    0.60066   0.56680   0.47066   Biso      1.000     Cu          0.807555  
         Cu2       1.0000    0.89934   0.43320   0.97066   Biso      1.000     Cu          0.807566  
         Cu3       1.0000    0.10066   0.93320   0.52934   Biso      1.000     Cu          0.807553  
         Cu4       1.0000    0.39934   0.06680   0.02934   Biso      1.000     Cu          0.807575  
         H1        1.0000    0.78770   0.13120   0.81130   Biso      1.000     H          0.133737  
         H2        1.0000    0.16450   0.50570   0.19370   Biso      1.000     H          0.122575  
         H3        1.0000    0.66200   0.77200   0.72120   Biso      1.000     H          0.098833  
         H4        1.0000    0.71460   0.55050   0.69790   Biso      1.000     H          0.333969  
         H5        1.0000    0.80060   0.64990   0.62650   Biso      1.000     H          0.315654  
         H6        1.0000    0.40080   0.73990   0.83050   Biso      1.000     H          0.127405  
         H7        1.0000    0.50860   0.62080   0.84590   Biso      1.000     H          0.122337  
         H8        1.0000    0.21230   0.63120   0.68870   Biso      1.000     H          0.133745  
         H9        1.0000    0.33550   0.49430   0.69370   Biso      1.000     H          0.122583  
         H10       1.0000    0.83550   0.00570   0.30630   Biso      1.000     H          0.122585  
         H11       1.0000    0.71230   0.86880   0.31130   Biso      1.000     H          0.133748  
         H12       1.0000    0.00860   0.87920   0.15410   Biso      1.000     H          0.12234   
         H13       1.0000    0.90080   0.76010   0.16950   Biso      1.000     H          0.12741   
         H14       1.0000    0.30060   0.85010   0.37350   Biso      1.000     H          0.315655  
         H15       1.0000    0.21460   0.94950   0.30210   Biso      1.000     H          0.33397   
         H16       1.0000    0.16200   0.72800   0.27880   Biso      1.000     H          0.098836  
         H17       1.0000    0.28770   0.36880   0.18870   Biso      1.000     H          0.13374   
         H18       1.0000    0.66450   0.99430   0.80630   Biso      1.000     H          0.122573  
         H19       1.0000    0.99140   0.37920   0.34590   Biso      1.000     H          0.122333  
         H20       1.0000    0.69940   0.35010   0.12650   Biso      1.000     H          0.31566   
         H21       1.0000    0.78540   0.44950   0.19790   Biso      1.000     H          0.333979  
         H22       1.0000    0.83800   0.22800   0.22120   Biso      1.000     H          0.098837  
         H23       1.0000    0.33800   0.27200   0.77880   Biso      1.000     H          0.098834  
         H24       1.0000    0.28540   0.05050   0.80210   Biso      1.000     H          0.333979  
         H25       1.0000    0.49140   0.12080   0.65410   Biso      1.000     H          0.122331  
         H26       1.0000    0.59920   0.23990   0.66950   Biso      1.000     H          0.127395  
         H27       1.0000    0.09920   0.26010   0.33050   Biso      1.000     H          0.127399  
         H28       1.0000    0.19940   0.14990   0.87350   Biso      1.000     H          0.315658  
         N1        1.0000    0.81000   0.39160   0.13750   Biso      1.000     N          -0.643741           
         N2        1.0000    0.69000   0.60840   0.63750   Biso      1.000     N          -0.64374  
         N3        1.0000    0.19000   0.89160   0.36250   Biso      1.000     N          -0.64374  
         N4        1.0000    0.31000   0.10840   0.86250   Biso      1.000     N          -0.643743           
         O1        1.0000    0.47470   0.52900   0.31540   Biso      1.000     O          -0.536391           
         O2        1.0000    0.48010   0.73790   0.48300   Biso      1.000     O          -0.532314           
         O3        1.0000    0.12410   0.12060   0.11950   Biso      1.000     O          -0.541457           
         O4        1.0000    0.01990   0.26210   0.98300   Biso      1.000     O          -0.532301           
         O5        1.0000    0.37590   0.87940   0.61950   Biso      1.000     O          -0.541468           
         O6        1.0000    0.28620   0.44910   0.45290   Biso      1.000     O          -0.555664           
         O7        1.0000    0.78620   0.05090   0.54710   Biso      1.000     O          -0.555663           
         O8        1.0000    0.97470   0.97100   0.68460   Biso      1.000     O          -0.536387           
         O9        1.0000    0.62410   0.37940   0.88050   Biso      1.000     O          -0.541452           
         O10       1.0000    0.51990   0.23790   0.01700   Biso      1.000     O          -0.532303           
         O11       1.0000    0.71380   0.94910   0.04710   Biso      1.000     O          -0.555654           
         O12       1.0000    0.52530   0.02900   0.18460   Biso      1.000     O          -0.536368           
         O13       1.0000    0.87590   0.62060   0.38050   Biso      1.000     O          -0.541469           
         O14       1.0000    0.98010   0.76210   0.51700   Biso      1.000     O          -0.532308           
         O15       1.0000    0.02530   0.47100   0.81540   Biso      1.000     O          -0.536362           
         O16       1.0000    0.21380   0.55090   0.95290   Biso      1.000     O          -0.555649 