
##########################################################################
#               Crystallographic Information Format file
#               Produced by PyCifRW module
#
#  This is a CIF file.  CIF has been adopted by the International
#  Union of Crystallography as the standard for data archiving and
#  transmission.
#
#  For information on this file format, follow the CIF links at
#  http://www.iucr.org
##########################################################################

data_image0

_cell_length_a                          7.232
_cell_length_b                          10.311
_cell_length_c                          11.058
_cell_angle_alpha                       90
_cell_angle_beta                        90
_cell_angle_gamma                       90
_symmetry_space_group_name_H-M          'P 1'
_symmetry_int_tables_number             1
loop_
  _symmetry_equiv_pos_as_xyz
         'x, y, z' 
loop_
  _atom_site_label
  _atom_site_occupancy
  _atom_site_fract_x
  _atom_site_fract_y
  _atom_site_fract_z
  _atom_site_thermal_displace_type
  _atom_site_B_iso_or_equiv
  _atom_site_type_symbol
  _atom_site_charge
         C1        1.0000    0.17250   0.03200   0.34510   Biso      1.000     C          0.635895  
         C2        1.0000    0.79240   0.41800   0.75700   Biso      1.000     C          -0.331443           
         C3        1.0000    0.94940   0.33180   0.71130   Biso      1.000     C          -0.209418           
         C4        1.0000    0.08050   0.28430   0.80990   Biso      1.000     C          0.050996  
         C5        1.0000    0.97040   0.21500   0.91160   Biso      1.000     C          0.593071  
         C6        1.0000    0.41950   0.71570   0.30990   Biso      1.000     C          0.050996  
         C7        1.0000    0.55060   0.66820   0.21130   Biso      1.000     C          -0.209419           
         C8        1.0000    0.70760   0.58200   0.25700   Biso      1.000     C          -0.331442           
         C9        1.0000    0.82750   0.53200   0.15490   Biso      1.000     C          0.635896  
         C10       1.0000    0.29240   0.08200   0.24300   Biso      1.000     C          -0.331442           
         C11       1.0000    0.52960   0.78500   0.41160   Biso      1.000     C          0.593074  
         C12       1.0000    0.02960   0.71500   0.58840   Biso      1.000     C          0.593075  
         C13       1.0000    0.91950   0.78430   0.69010   Biso      1.000     C          0.050995  
         C14       1.0000    0.05060   0.83180   0.78870   Biso      1.000     C          -0.20942  
         C15       1.0000    0.20760   0.91800   0.74300   Biso      1.000     C          -0.331441           
         C16       1.0000    0.32750   0.96800   0.84510   Biso      1.000     C          0.635893  
         C17       1.0000    0.47040   0.28500   0.08840   Biso      1.000     C          0.593076  
         C18       1.0000    0.58050   0.21570   0.19010   Biso      1.000     C          0.050995  
         C19       1.0000    0.44940   0.16820   0.28870   Biso      1.000     C          -0.209418           
         C20       1.0000    0.67250   0.46800   0.65490   Biso      1.000     C          0.635896  
         Cu1       1.0000    0.89969   0.93316   0.47087   Biso      1.000     Cu          0.7964479999999999  
         Cu2       1.0000    0.60031   0.06684   0.97087   Biso      1.000     Cu          0.796446  
         Cu3       1.0000    0.39969   0.56684   0.52913   Biso      1.000     Cu          0.796445  
         Cu4       1.0000    0.10031   0.43316   0.02913   Biso      1.000     Cu          0.79645   
         H1        1.0000    0.65570   0.50900   0.30070   Biso      1.000     H          0.13652999999999998           
         H2        1.0000    0.28360   0.86880   0.68710   Biso      1.000     H          0.146606  
         H3        1.0000    0.66580   0.27860   0.22610   Biso      1.000     H          0.09897   
         H4        1.0000    0.81040   0.13280   0.13390   Biso      1.000     H          0.335638  
         H5        1.0000    0.68190   0.03850   0.18460   Biso      1.000     H          0.32853000000000004           
         H6        1.0000    0.52030   0.12010   0.34820   Biso      1.000     H          0.116122  
         H7        1.0000    0.39630   0.24290   0.32910   Biso      1.000     H          0.11879100000000001           
         H8        1.0000    0.34430   0.00900   0.19930   Biso      1.000     H          0.136526  
         H9        1.0000    0.21640   0.13120   0.18710   Biso      1.000     H          0.146603  
         H10       1.0000    0.71640   0.36880   0.81290   Biso      1.000     H          0.146609  
         H11       1.0000    0.84430   0.49100   0.80070   Biso      1.000     H          0.13652999999999998           
         H12       1.0000    0.89630   0.25710   0.67090   Biso      1.000     H          0.118796  
         H13       1.0000    0.02030   0.37990   0.65180   Biso      1.000     H          0.116128  
         H14       1.0000    0.18190   0.46150   0.81540   Biso      1.000     H          0.328532  
         H15       1.0000    0.31040   0.36720   0.86610   Biso      1.000     H          0.335642  
         H16       1.0000    0.16580   0.22140   0.77390   Biso      1.000     H          0.098974  
         H17       1.0000    0.15570   0.99100   0.69930   Biso      1.000     H          0.136528  
         H18       1.0000    0.78360   0.63120   0.31290   Biso      1.000     H          0.146609  
         H19       1.0000    0.10370   0.75710   0.82910   Biso      1.000     H          0.11879300000000001           
         H20       1.0000    0.81810   0.96150   0.68460   Biso      1.000     H          0.32852800000000004           
         H21       1.0000    0.68960   0.86720   0.63390   Biso      1.000     H          0.33563699999999996           
         H22       1.0000    0.83420   0.72140   0.72610   Biso      1.000     H          0.09897   
         H23       1.0000    0.33420   0.77860   0.27390   Biso      1.000     H          0.098972  
         H24       1.0000    0.18960   0.63280   0.36610   Biso      1.000     H          0.33564   
         H25       1.0000    0.60370   0.74290   0.17090   Biso      1.000     H          0.118795  
         H26       1.0000    0.47970   0.62010   0.15180   Biso      1.000     H          0.116127  
         H27       1.0000    0.97970   0.87990   0.84820   Biso      1.000     H          0.116124  
         H28       1.0000    0.31810   0.53850   0.31540   Biso      1.000     H          0.32853000000000004           
         N1        1.0000    0.80930   0.89080   0.63730   Biso      1.000     N          -0.652032           
         N2        1.0000    0.69070   0.10920   0.13730   Biso      1.000     N          -0.652032           
         N3        1.0000    0.19070   0.39080   0.86270   Biso      1.000     N          -0.652033           
         N4        1.0000    0.30930   0.60920   0.36270   Biso      1.000     N          -0.652033           
         O1        1.0000    0.28520   0.94940   0.95390   Biso      1.000     O          -0.559361           
         O2        1.0000    0.37450   0.37900   0.11910   Biso      1.000     O          -0.544797           
         O3        1.0000    0.01840   0.76190   0.48310   Biso      1.000     O          -0.524042           
         O4        1.0000    0.12550   0.62100   0.61910   Biso      1.000     O          -0.544801           
         O5        1.0000    0.48160   0.23810   0.98310   Biso      1.000     O          -0.524043           
         O6        1.0000    0.47590   0.02850   0.81620   Biso      1.000     O          -0.536515           
         O7        1.0000    0.97590   0.47150   0.18380   Biso      1.000     O          -0.536513           
         O8        1.0000    0.78520   0.55060   0.04610   Biso      1.000     O          -0.559358           
         O9        1.0000    0.51840   0.73810   0.51690   Biso      1.000     O          -0.524038           
         O10       1.0000    0.62550   0.87900   0.38090   Biso      1.000     O          -0.5447960000000001           
         O11       1.0000    0.52410   0.52850   0.68380   Biso      1.000     O          -0.536516           
         O12       1.0000    0.71480   0.44940   0.54610   Biso      1.000     O          -0.559357           
         O13       1.0000    0.98160   0.26190   0.01690   Biso      1.000     O          -0.524035           
         O14       1.0000    0.87450   0.12100   0.88090   Biso      1.000     O          -0.544791           
         O15       1.0000    0.21480   0.05060   0.45390   Biso      1.000     O          -0.559366           
         O16       1.0000    0.02410   0.97150   0.31620   Biso      1.000     O          -0.536522 