
##########################################################################
#               Crystallographic Information Format file
#               Produced by PyCifRW module
#
#  This is a CIF file.  CIF has been adopted by the International
#  Union of Crystallography as the standard for data archiving and
#  transmission.
#
#  For information on this file format, follow the CIF links at
#  http://www.iucr.org
##########################################################################

data_image0

_cell_length_a                          7.238
_cell_length_b                          10.35
_cell_length_c                          11.084
_cell_angle_alpha                       90
_cell_angle_beta                        90
_cell_angle_gamma                       90
_symmetry_space_group_name_H-M          'P 1'
_symmetry_int_tables_number             1
loop_
  _symmetry_equiv_pos_as_xyz
         'x, y, z' 
loop_
  _atom_site_label
  _atom_site_occupancy
  _atom_site_fract_x
  _atom_site_fract_y
  _atom_site_fract_z
  _atom_site_thermal_displace_type
  _atom_site_B_iso_or_equiv
  _atom_site_type_symbol
  _atom_site_charge
         C1        1.0000    0.42440   0.28290   0.90460   Biso      1.000     C          0.6198199999999999  
         C2        1.0000    0.95730   0.83260   0.99330   Biso      1.000     C          -0.280159           
         C3        1.0000    0.80150   0.91760   0.03700   Biso      1.000     C          -0.246612           
         C4        1.0000    0.66990   0.96610   0.93890   Biso      1.000     C          0.098152  
         C5        1.0000    0.77800   0.03400   0.84050   Biso      1.000     C          0.590852  
         C6        1.0000    0.33010   0.53390   0.43890   Biso      1.000     C          0.098164  
         C7        1.0000    0.19850   0.58240   0.53700   Biso      1.000     C          -0.24657300000000001          
         C8        1.0000    0.04270   0.66740   0.49330   Biso      1.000     C          -0.28017  
         C9        1.0000    0.92440   0.71710   0.59540   Biso      1.000     C          0.619829  
         C10       1.0000    0.54270   0.33260   0.00670   Biso      1.000     C          -0.28017  
         C11       1.0000    0.22200   0.46600   0.34050   Biso      1.000     C          0.590841  
         C12       1.0000    0.27800   0.96600   0.65950   Biso      1.000     C          0.590839  
         C13       1.0000    0.16990   0.03390   0.56110   Biso      1.000     C          0.09815399999999999           
         C14       1.0000    0.30150   0.08240   0.46300   Biso      1.000     C          -0.24661100000000002          
         C15       1.0000    0.45730   0.16740   0.50670   Biso      1.000     C          -0.280157           
         C16       1.0000    0.57560   0.21710   0.40460   Biso      1.000     C          0.619838  
         C17       1.0000    0.72200   0.53400   0.15950   Biso      1.000     C          0.590846  
         C18       1.0000    0.83010   0.46610   0.06110   Biso      1.000     C          0.09816   
         C19       1.0000    0.69850   0.41760   0.96300   Biso      1.000     C          -0.24657300000000001          
         C20       1.0000    0.07560   0.78290   0.09540   Biso      1.000     C          0.619833  
         Cu1       1.0000    0.85030   0.31668   0.27933   Biso      1.000     Cu          0.805439  
         Cu2       1.0000    0.14970   0.18332   0.77933   Biso      1.000     Cu          0.805419  
         Cu3       1.0000    0.64970   0.81668   0.72067   Biso      1.000     Cu          0.805431  
         Cu4       1.0000    0.35030   0.68332   0.22067   Biso      1.000     Cu          0.805427  
         H1        1.0000    0.52400   0.63900   0.36500   Biso      1.000     H          0.451717  
         H2        1.0000    0.07400   0.21800   0.55400   Biso      1.000     H          0.331276  
         H3        1.0000    0.91700   0.52200   0.02800   Biso      1.000     H          0.10167000000000001           
         H4        1.0000    0.66100   0.48100   0.91900   Biso      1.000     H          0.131969  
         H5        1.0000    0.75900   0.36200   0.89700   Biso      1.000     H          0.11838199999999999           
         H6        1.0000    0.46100   0.39300   0.06300   Biso      1.000     H          0.13613699999999998           
         H7        1.0000    0.59200   0.24100   0.04600   Biso      1.000     H          0.120999  
         H8        1.0000    0.02400   0.36100   0.13500   Biso      1.000     H          0.45172700000000005           
         H9        1.0000    0.92600   0.28200   0.05400   Biso      1.000     H          0.331295  
         H10       1.0000    0.57400   0.78200   0.94600   Biso      1.000     H          0.331282  
         H11       1.0000    0.47600   0.86100   0.86500   Biso      1.000     H          0.451708  
         H12       1.0000    0.90800   0.74100   0.95400   Biso      1.000     H          0.12101600000000001           
         H13       1.0000    0.03900   0.89300   0.93700   Biso      1.000     H          0.13614400000000002           
         H14       1.0000    0.74100   0.86200   0.10300   Biso      1.000     H          0.118399  
         H15       1.0000    0.83900   0.98100   0.08100   Biso      1.000     H          0.132     
         H16       1.0000    0.58300   0.02200   0.97200   Biso      1.000     H          0.101675  
         H17       1.0000    0.97600   0.13900   0.63500   Biso      1.000     H          0.451705  
         H18       1.0000    0.42600   0.71800   0.44600   Biso      1.000     H          0.331289  
         H19       1.0000    0.40800   0.25900   0.54600   Biso      1.000     H          0.121026  
         H20       1.0000    0.24100   0.13800   0.39700   Biso      1.000     H          0.118407  
         H21       1.0000    0.33900   0.01900   0.41900   Biso      1.000     H          0.132002  
         H22       1.0000    0.08300   0.97800   0.52800   Biso      1.000     H          0.101668  
         H23       1.0000    0.41700   0.47800   0.47200   Biso      1.000     H          0.101658  
         H24       1.0000    0.16100   0.51900   0.58100   Biso      1.000     H          0.131967  
         H25       1.0000    0.09200   0.75900   0.45400   Biso      1.000     H          0.121005  
         H26       1.0000    0.96100   0.60700   0.43700   Biso      1.000     H          0.13614   
         H27       1.0000    0.53900   0.10700   0.56300   Biso      1.000     H          0.136152  
         H28       1.0000    0.25900   0.63800   0.60300   Biso      1.000     H          0.11838199999999999           
         N1        1.0000    0.06020   0.14170   0.61330   Biso      1.000     N          -0.8269690000000001           
         N2        1.0000    0.93980   0.35830   0.11330   Biso      1.000     N          -0.826973           
         N3        1.0000    0.56020   0.85830   0.88670   Biso      1.000     N          -0.826967           
         N4        1.0000    0.43980   0.64170   0.38670   Biso      1.000     N          -0.8269780000000001           
         O1        1.0000    0.72490   0.27860   0.43410   Biso      1.000     O          -0.5419039999999999           
         O2        1.0000    0.73170   0.48720   0.26660   Biso      1.000     O          -0.512811           
         O3        1.0000    0.37410   0.87140   0.63100   Biso      1.000     O          -0.547075           
         O4        1.0000    0.26830   0.01280   0.76660   Biso      1.000     O          -0.512839           
         O5        1.0000    0.62590   0.62860   0.13100   Biso      1.000     O          -0.547041           
         O6        1.0000    0.53560   0.19940   0.29690   Biso      1.000     O          -0.550879           
         O7        1.0000    0.96440   0.69940   0.70310   Biso      1.000     O          -0.55089  
         O8        1.0000    0.77510   0.77860   0.56590   Biso      1.000     O          -0.54195  
         O9        1.0000    0.12590   0.37140   0.36900   Biso      1.000     O          -0.5470550000000001           
         O10       1.0000    0.23170   0.51280   0.23340   Biso      1.000     O          -0.512828           
         O11       1.0000    0.03560   0.80060   0.20310   Biso      1.000     O          -0.550916           
         O12       1.0000    0.22490   0.72140   0.06590   Biso      1.000     O          -0.541929           
         O13       1.0000    0.87410   0.12860   0.86900   Biso      1.000     O          -0.547075           
         O14       1.0000    0.76830   0.98720   0.73340   Biso      1.000     O          -0.512843           
         O15       1.0000    0.27510   0.22140   0.93410   Biso      1.000     O          -0.5419689999999999           
         O16       1.0000    0.46440   0.30060   0.79690   Biso      1.000     O          -0.550925 