
##########################################################################
#               Crystallographic Information Format file
#               Produced by PyCifRW module
#
#  This is a CIF file.  CIF has been adopted by the International
#  Union of Crystallography as the standard for data archiving and
#  transmission.
#
#  For information on this file format, follow the CIF links at
#  http://www.iucr.org
##########################################################################

data_image0

_cell_length_a                          5.387
_cell_length_b                          16.0121
_cell_length_c                          16.0121
_cell_angle_alpha                       61.2404
_cell_angle_beta                        83.5611
_cell_angle_gamma                       96.4389
_symmetry_space_group_name_H-M          'P 1'
_symmetry_int_tables_number             1
loop_
  _symmetry_equiv_pos_as_xyz
         'x, y, z' 
loop_
  _atom_site_label
  _atom_site_occupancy
  _atom_site_fract_x
  _atom_site_fract_y
  _atom_site_fract_z
  _atom_site_thermal_displace_type
  _atom_site_B_iso_or_equiv
  _atom_site_type_symbol
  _atom_site_charge
         C1        1.0000    0.71914   0.62851   0.49349   Biso      1.000     C          -0.058938           
         C2        1.0000    0.80114   0.26728   0.93476   Biso      1.000     C          -0.06167  
         C3        1.0000    0.45463   0.39015   0.21096   Biso      1.000     C          0.100297  
         C4        1.0000    0.83628   0.42416   0.12392   Biso      1.000     C          -0.060055           
         C5        1.0000    0.78737   0.50651   0.12200   Biso      1.000     C          -0.05645  
         C6        1.0000    0.35274   0.99507   0.34865   Biso      1.000     C          0.124463  
         C7        1.0000    0.14623   0.97041   0.24902   Biso      1.000     C          -0.054645000000000006         
         C8        1.0000    0.82418   0.21943   0.02959   Biso      1.000     C          -0.055235           
         C9        1.0000    0.26410   0.06524   0.20204   Biso      1.000     C          -0.062433           
         C10       1.0000    0.03980   0.87608   0.54808   Biso      1.000     C          -0.058066           
         C11       1.0000    0.09063   0.87800   0.62851   Biso      1.000     C          -0.057184000000000006         
         C12       1.0000    0.70139   0.34865   0.65628   Biso      1.000     C          0.12295   
         C13       1.0000    0.39525   0.24902   0.78057   Biso      1.000     C          -0.055308           
         C14       1.0000    0.46614   0.20204   0.73272   Biso      1.000     C          -0.062219000000000003         
         C15       1.0000    0.93552   0.60111   0.60985   Biso      1.000     C          0.100812  
         C16       1.0000    0.33441   0.78904   0.60111   Biso      1.000     C          0.100999  
         C17       1.0000    0.64233   0.34372   0.00493   Biso      1.000     C          0.12490799999999999           
         C18       1.0000    0.28086   0.37149   0.50651   Biso      1.000     C          -0.058979           
         C19       1.0000    0.41212   0.45192   0.42416   Biso      1.000     C          -0.059179999999999996         
         C20       1.0000    0.21263   0.49349   0.87800   Biso      1.000     C          -0.05626799999999999          
         C21       1.0000    0.16372   0.57584   0.87608   Biso      1.000     C          -0.060135           
         C22       1.0000    0.54537   0.60985   0.78904   Biso      1.000     C          0.100216  
         C23       1.0000    0.19886   0.73272   0.06524   Biso      1.000     C          -0.061692           
         C24       1.0000    0.17582   0.78057   0.97041   Biso      1.000     C          -0.055221000000000006         
         C25       1.0000    0.64726   0.00493   0.65135   Biso      1.000     C          0.12306700000000001           
         C26       1.0000    0.85377   0.02959   0.75098   Biso      1.000     C          -0.054561           
         C27       1.0000    0.73590   0.93476   0.79796   Biso      1.000     C          -0.063526           
         C28       1.0000    0.66559   0.21096   0.39889   Biso      1.000     C          0.100022  
         C29       1.0000    0.96020   0.12392   0.45192   Biso      1.000     C          -0.058827           
         C30       1.0000    0.90937   0.12200   0.37149   Biso      1.000     C          -0.058257           
         C31       1.0000    0.29861   0.65135   0.34372   Biso      1.000     C          0.123628  
         C32       1.0000    0.60475   0.75098   0.21943   Biso      1.000     C          -0.054665           
         C33       1.0000    0.53386   0.79796   0.26728   Biso      1.000     C          -0.062959           
         C34       1.0000    0.06448   0.39889   0.39015   Biso      1.000     C          0.099852  
         C35       1.0000    0.58788   0.54808   0.57584   Biso      1.000     C          -0.057594000000000006         
         C36       1.0000    0.35767   0.65628   0.99507   Biso      1.000     C          0.124955  
         Cu1       1.0000    0.81654   0.21408   0.57226   Biso      1.000     Cu          0.6084109999999999  
         Cu2       1.0000    0.39754   0.78634   0.78592   Biso      1.000     Cu          0.615725  
         Cu3       1.0000    0.61120   0.42774   0.78634   Biso      1.000     Cu          0.615556  
         Cu4       1.0000    0.18346   0.78592   0.42774   Biso      1.000     Cu          0.615861  
         Cu5       1.0000    0.60246   0.21366   0.21408   Biso      1.000     Cu          0.614583  
         Cu6       1.0000    0.38880   0.57226   0.21366   Biso      1.000     Cu          0.61511   
         H1        1.0000    0.93074   0.57749   0.07634   Biso      1.000     H          0.098445  
         H2        1.0000    0.02562   0.42509   0.08344   Biso      1.000     H          0.09058300000000001           
         H3        1.0000    0.26139   0.34325   0.25558   Biso      1.000     H          0.093601  
         H4        1.0000    0.88988   0.24480   0.88241   Biso      1.000     H          0.09625800000000001           
         H5        1.0000    0.91136   0.15140   0.05874   Biso      1.000     H          0.09777000000000001           
         H6        1.0000    0.60053   0.49146   0.42509   Biso      1.000     H          0.089671  
         H7        1.0000    0.35326   0.34617   0.57749   Biso      1.000     H          0.098843  
         H8        1.0000    0.40807   0.97643   0.42144   Biso      1.000     H          0.10484600000000001           
         H9        1.0000    0.91813   0.40116   0.34325   Biso      1.000     H          0.092959  
         H10       1.0000    0.64508   0.87278   0.24480   Biso      1.000     H          0.09678300000000001           
         H11       1.0000    0.75996   0.78986   0.15140   Biso      1.000     H          0.09819800000000001           
         H12       1.0000    0.56835   0.39787   0.02357   Biso      1.000     H          0.10416800000000001           
         H13       1.0000    0.02990   0.94126   0.21014   Biso      1.000     H          0.09841699999999999           
         H14       1.0000    0.89094   0.91656   0.50854   Biso      1.000     H          0.08970299999999999           
         H15       1.0000    0.48303   0.74442   0.59884   Biso      1.000     H          0.093293  
         H16       1.0000    0.17048   0.57856   0.39787   Biso      1.000     H          0.10500599999999999           
         H17       1.0000    0.99292   0.92366   0.65383   Biso      1.000     H          0.099008  
         H18       1.0000    0.82952   0.42144   0.60213   Biso      1.000     H          0.104769  
         H19       1.0000    0.24004   0.21014   0.84860   Biso      1.000     H          0.09786399999999999           
         H20       1.0000    0.35492   0.12722   0.75520   Biso      1.000     H          0.09648999999999999           
         H21       1.0000    0.08187   0.59884   0.65675   Biso      1.000     H          0.092946  
         H22       1.0000    0.39947   0.50854   0.57491   Biso      1.000     H          0.09035900000000001           
         H23       1.0000    0.64674   0.65383   0.42251   Biso      1.000     H          0.099078  
         H24       1.0000    0.43165   0.60213   0.97643   Biso      1.000     H          0.10436199999999998           
         H25       1.0000    0.08864   0.84860   0.94126   Biso      1.000     H          0.098183  
         H26       1.0000    0.11012   0.75520   0.11759   Biso      1.000     H          0.096206  
         H27       1.0000    0.73861   0.65675   0.74442   Biso      1.000     H          0.093472  
         H28       1.0000    0.22770   0.11759   0.12722   Biso      1.000     H          0.096897  
         H29       1.0000    0.00708   0.07634   0.34617   Biso      1.000     H          0.098473  
         H30       1.0000    0.06926   0.42251   0.92366   Biso      1.000     H          0.098503  
         H31       1.0000    0.51697   0.25558   0.40116   Biso      1.000     H          0.093573  
         H32       1.0000    0.77230   0.88241   0.87278   Biso      1.000     H          0.096211  
         H33       1.0000    0.97010   0.05874   0.78986   Biso      1.000     H          0.09801499999999999           
         H34       1.0000    0.59193   0.02357   0.57856   Biso      1.000     H          0.10454300000000001           
         H35       1.0000    0.97438   0.57491   0.91656   Biso      1.000     H          0.09047999999999999           
         H36       1.0000    0.10906   0.08344   0.49146   Biso      1.000     H          0.089226  
         N1        1.0000    0.80223   0.07263   0.65974   Biso      1.000     N          -0.302873           
         N2        1.0000    0.58732   0.92252   0.73976   Biso      1.000     N          -0.311189           
         N3        1.0000    0.80871   0.17861   0.46908   Biso      1.000     N          -0.288006           
         N4        1.0000    0.73778   0.18018   0.33574   Biso      1.000     N          -0.279706           
         N5        1.0000    0.46197   0.65974   0.26763   Biso      1.000     N          -0.302663           
         N6        1.0000    0.32708   0.73976   0.33772   Biso      1.000     N          -0.31149  
         N7        1.0000    0.27779   0.46908   0.35231   Biso      1.000     N          -0.289044           
         N8        1.0000    0.07352   0.33574   0.48408   Biso      1.000     N          -0.278333           
         N9        1.0000    0.66480   0.33772   0.92252   Biso      1.000     N          -0.311684           
         N10       1.0000    0.63010   0.35231   0.17861   Biso      1.000     N          -0.289577           
         N11       1.0000    0.41268   0.07748   0.26024   Biso      1.000     N          -0.310907           
         N12       1.0000    0.19777   0.92737   0.34026   Biso      1.000     N          -0.304451           
         N13       1.0000    0.19129   0.82139   0.53092   Biso      1.000     N          -0.29068299999999997          
         N14       1.0000    0.26222   0.81982   0.66426   Biso      1.000     N          -0.282447           
         N15       1.0000    0.53803   0.34026   0.73237   Biso      1.000     N          -0.30241799999999996          
         N16       1.0000    0.67292   0.26024   0.66228   Biso      1.000     N          -0.310212           
         N17       1.0000    0.72221   0.53092   0.64769   Biso      1.000     N          -0.29061  
         N18       1.0000    0.92648   0.66426   0.51592   Biso      1.000     N          -0.281481           
         N19       1.0000    0.27040   0.73237   0.92737   Biso      1.000     N          -0.303683           
         N20       1.0000    0.33520   0.66228   0.07748   Biso      1.000     N          -0.311638           
         N21       1.0000    0.36990   0.64769   0.82139   Biso      1.000     N          -0.29010199999999997          
         N22       1.0000    0.44240   0.51592   0.81982   Biso      1.000     N          -0.28322600000000003          
         N23       1.0000    0.55760   0.48408   0.18018   Biso      1.000     N          -0.28271199999999996          
         N24       1.0000    0.72960   0.26763   0.07263   Biso      1.000     N          -0.30541 