
##########################################################################
#               Crystallographic Information Format file
#               Produced by PyCifRW module
#
#  This is a CIF file.  CIF has been adopted by the International
#  Union of Crystallography as the standard for data archiving and
#  transmission.
#
#  For information on this file format, follow the CIF links at
#  http://www.iucr.org
##########################################################################

data_image0

_cell_length_a                          10.5751
_cell_length_b                          10.5751
_cell_length_c                          14.8013
_cell_angle_alpha                       90.607
_cell_angle_beta                        90.607
_cell_angle_gamma                       105.773
_symmetry_space_group_name_H-M          'P 1'
_symmetry_int_tables_number             1
loop_
  _symmetry_equiv_pos_as_xyz
         'x, y, z' 
loop_
  _atom_site_label
  _atom_site_occupancy
  _atom_site_fract_x
  _atom_site_fract_y
  _atom_site_fract_z
  _atom_site_thermal_displace_type
  _atom_site_B_iso_or_equiv
  _atom_site_type_symbol
  _atom_site_charge
         C1        1.0000    0.65370   0.40010   0.61440   Biso      1.000     C          0.661566  
         C2        1.0000    0.24270   0.94590   0.21380   Biso      1.000     C          0.5960810000000001  
         C3        1.0000    0.30150   0.65830   0.30100   Biso      1.000     C          -0.261205           
         C4        1.0000    0.34630   0.59990   0.38560   Biso      1.000     C          0.661568  
         C5        1.0000    0.71850   0.60450   0.29030   Biso      1.000     C          -0.25083  
         C6        1.0000    0.68050   0.61450   0.38870   Biso      1.000     C          0.65241   
         C7        1.0000    0.65560   0.01380   0.23090   Biso      1.000     C          0.478513  
         C8        1.0000    0.61140   0.22080   0.19910   Biso      1.000     C          -0.246962           
         C9        1.0000    0.55410   0.25730   0.28620   Biso      1.000     C          0.596082  
         C10       1.0000    0.84170   0.19850   0.19900   Biso      1.000     C          -0.261203           
         C11       1.0000    0.90010   0.15370   0.11440   Biso      1.000     C          0.661567  
         C12       1.0000    0.89550   0.78150   0.20970   Biso      1.000     C          -0.25083  
         C13       1.0000    0.88550   0.81950   0.11130   Biso      1.000     C          0.652409  
         C14       1.0000    0.51380   0.15560   0.73090   Biso      1.000     C          0.478513  
         C15       1.0000    0.72080   0.11140   0.69910   Biso      1.000     C          -0.246962           
         C16       1.0000    0.75730   0.05410   0.78620   Biso      1.000     C          0.5960840000000001  
         C17       1.0000    0.69850   0.34170   0.69900   Biso      1.000     C          -0.2612   
         C18       1.0000    0.28150   0.39550   0.70970   Biso      1.000     C          -0.25083  
         C19       1.0000    0.31950   0.38550   0.61130   Biso      1.000     C          0.652412  
         C20       1.0000    0.34440   0.98620   0.76910   Biso      1.000     C          0.478513  
         C21       1.0000    0.38860   0.77920   0.80090   Biso      1.000     C          -0.246962           
         C22       1.0000    0.44590   0.74270   0.71380   Biso      1.000     C          0.5960850000000001  
         C23       1.0000    0.15830   0.80150   0.80100   Biso      1.000     C          -0.2612   
         C24       1.0000    0.09990   0.84630   0.88560   Biso      1.000     C          0.661566  
         C25       1.0000    0.10450   0.21850   0.79030   Biso      1.000     C          -0.25083  
         C26       1.0000    0.11450   0.18050   0.88870   Biso      1.000     C          0.652412  
         C27       1.0000    0.68570   0.81430   0.25000   Biso      1.000     C          0.46632700000000005           
         C28       1.0000    0.31430   0.18570   0.75000   Biso      1.000     C          0.46632700000000005           
         C29       1.0000    0.48620   0.84440   0.26910   Biso      1.000     C          0.47851400000000005           
         C30       1.0000    0.27920   0.88860   0.30090   Biso      1.000     C          -0.24695999999999999          
         Eu1       1.0000    0.57287   0.67571   0.55728   Biso      1.000     Eu          1.39856   
         Eu2       1.0000    0.82429   0.92713   0.94272   Biso      1.000     Eu          1.398563  
         Eu3       1.0000    0.42713   0.32429   0.44272   Biso      1.000     Eu          1.3985610000000002  
         Eu4       1.0000    0.17571   0.07287   0.05728   Biso      1.000     Eu          1.3985610000000002  
         H1        1.0000    0.05810   0.28590   0.78700   Biso      1.000     H          0.144199  
         H2        1.0000    0.32650   0.96050   0.34010   Biso      1.000     H          0.148845  
         H3        1.0000    0.19900   0.84380   0.33130   Biso      1.000     H          0.150094  
         H4        1.0000    0.32280   0.61280   0.24850   Biso      1.000     H          0.157405  
         H5        1.0000    0.20670   0.64090   0.30230   Biso      1.000     H          0.148654  
         H6        1.0000    0.78590   0.55810   0.28700   Biso      1.000     H          0.1442    
         H7        1.0000    0.64250   0.55390   0.25600   Biso      1.000     H          0.142349  
         H8        1.0000    0.53950   0.17350   0.15990   Biso      1.000     H          0.148844  
         H9        1.0000    0.05390   0.14250   0.75600   Biso      1.000     H          0.142349  
         H10       1.0000    0.88720   0.17720   0.25150   Biso      1.000     H          0.157404  
         H11       1.0000    0.65620   0.30100   0.16870   Biso      1.000     H          0.150094  
         H12       1.0000    0.94190   0.71410   0.21300   Biso      1.000     H          0.144201  
         H13       1.0000    0.14090   0.70670   0.80230   Biso      1.000     H          0.148652  
         H14       1.0000    0.11280   0.82280   0.74850   Biso      1.000     H          0.157403  
         H15       1.0000    0.34380   0.69900   0.83130   Biso      1.000     H          0.150094  
         H16       1.0000    0.85910   0.29330   0.19770   Biso      1.000     H          0.148652  
         H17       1.0000    0.35750   0.44610   0.74400   Biso      1.000     H          0.142349  
         H18       1.0000    0.21410   0.44190   0.71300   Biso      1.000     H          0.1442    
         H19       1.0000    0.46050   0.82650   0.84010   Biso      1.000     H          0.148845  
         H20       1.0000    0.67720   0.38720   0.75150   Biso      1.000     H          0.157403  
         H21       1.0000    0.80100   0.15620   0.66870   Biso      1.000     H          0.150094  
         H22       1.0000    0.67350   0.03950   0.65990   Biso      1.000     H          0.148844  
         H23       1.0000    0.94610   0.85750   0.24400   Biso      1.000     H          0.142348  
         H24       1.0000    0.79330   0.35910   0.69770   Biso      1.000     H          0.148652  
         N1        1.0000    0.23290   0.26710   0.75000   Biso      1.000     N          -0.015916999999999997         
         N2        1.0000    0.47210   0.02790   0.75000   Biso      1.000     N          -0.482471           
         N3        1.0000    0.76710   0.73290   0.25000   Biso      1.000     N          -0.01592  
         N4        1.0000    0.52790   0.97210   0.25000   Biso      1.000     N          -0.48247299999999993          
         N5        1.0000    0.29840   0.85800   0.78970   Biso      1.000     N          0.039632  
         N6        1.0000    0.25960   0.05880   0.76920   Biso      1.000     N          -0.438485           
         N7        1.0000    0.44120   0.24040   0.73080   Biso      1.000     N          -0.438488           
         N8        1.0000    0.70160   0.14200   0.21030   Biso      1.000     N          0.039636000000000005          
         N9        1.0000    0.74040   0.94120   0.23080   Biso      1.000     N          -0.438485           
         N10       1.0000    0.35800   0.79840   0.28970   Biso      1.000     N          0.039633999999999996          
         N11       1.0000    0.55880   0.75960   0.26920   Biso      1.000     N          -0.43848400000000004          
         N12       1.0000    0.64200   0.20160   0.71030   Biso      1.000     N          0.039637  
         O1        1.0000    0.17640   0.90700   0.94580   Biso      1.000     O          -0.5849840000000001           
         O2        1.0000    0.97550   0.81730   0.88470   Biso      1.000     O          -0.5429649999999999           
         O3        1.0000    0.39450   0.75050   0.63770   Biso      1.000     O          -0.5877760000000001           
         O4        1.0000    0.55080   0.70500   0.71990   Biso      1.000     O          -0.5520189999999999           
         O5        1.0000    0.26220   0.28660   0.56470   Biso      1.000     O          -0.614567           
         O6        1.0000    0.40990   0.47710   0.57900   Biso      1.000     O          -0.622496           
         O7        1.0000    0.59300   0.32360   0.55420   Biso      1.000     O          -0.584983           
         O8        1.0000    0.68270   0.52450   0.61530   Biso      1.000     O          -0.542962           
         O9        1.0000    0.74950   0.10550   0.86230   Biso      1.000     O          -0.587778           
         O10       1.0000    0.79500   0.94920   0.78010   Biso      1.000     O          -0.552018           
         O11       1.0000    0.78660   0.76220   0.06470   Biso      1.000     O          -0.614566           
         O12       1.0000    0.82360   0.09300   0.05420   Biso      1.000     O          -0.5849840000000001           
         O13       1.0000    0.02450   0.18270   0.11530   Biso      1.000     O          -0.542963           
         O14       1.0000    0.60550   0.24950   0.36230   Biso      1.000     O          -0.5877760000000001           
         O15       1.0000    0.44920   0.29500   0.28010   Biso      1.000     O          -0.552016           
         O16       1.0000    0.73780   0.71340   0.43530   Biso      1.000     O          -0.614566           
         O17       1.0000    0.59010   0.52290   0.42100   Biso      1.000     O          -0.622496           
         O18       1.0000    0.40700   0.67640   0.44580   Biso      1.000     O          -0.5849810000000001           
         O19       1.0000    0.31730   0.47550   0.38470   Biso      1.000     O          -0.542966           
         O20       1.0000    0.25050   0.89450   0.13770   Biso      1.000     O          -0.587775           
         O21       1.0000    0.20500   0.05080   0.21990   Biso      1.000     O          -0.5520149999999999           
         O22       1.0000    0.02290   0.09010   0.92100   Biso      1.000     O          -0.622496           
         O23       1.0000    0.97710   0.90990   0.07900   Biso      1.000     O          -0.622494           
         O24       1.0000    0.21340   0.23780   0.93530   Biso      1.000     O          -0.614567 