
##########################################################################
#               Crystallographic Information Format file
#               Produced by PyCifRW module
#
#  This is a CIF file.  CIF has been adopted by the International
#  Union of Crystallography as the standard for data archiving and
#  transmission.
#
#  For information on this file format, follow the CIF links at
#  http://www.iucr.org
##########################################################################

data_image0

_cell_length_a                          5.763
_cell_length_b                          10.213
_cell_length_c                          11.649
_cell_angle_alpha                       84.242
_cell_angle_beta                        89.051
_cell_angle_gamma                       82.876
_symmetry_space_group_name_H-M          'P 1'
_symmetry_int_tables_number             1
loop_
  _symmetry_equiv_pos_as_xyz
         'x, y, z' 
loop_
  _atom_site_label
  _atom_site_occupancy
  _atom_site_fract_x
  _atom_site_fract_y
  _atom_site_fract_z
  _atom_site_thermal_displace_type
  _atom_site_B_iso_or_equiv
  _atom_site_type_symbol
  _atom_site_charge
         C1        1.0000    0.44030   0.13100   0.03620   Biso      1.000     C          -0.098057           
         C2        1.0000    0.55970   0.86900   0.96380   Biso      1.000     C          -0.098057           
         C3        1.0000    0.27250   0.06390   0.96750   Biso      1.000     C          -0.10210599999999999          
         C4        1.0000    0.23320   0.90450   0.82590   Biso      1.000     C          -0.39715900000000004          
         C5        1.0000    0.86660   0.52920   0.39630   Biso      1.000     C          -0.12606099999999998          
         C6        1.0000    0.21680   0.54980   0.49760   Biso      1.000     C          -0.12112200000000001          
         C7        1.0000    0.76680   0.09550   0.17410   Biso      1.000     C          -0.39715900000000004          
         C8        1.0000    0.13340   0.47080   0.60370   Biso      1.000     C          -0.12605999999999998          
         C9        1.0000    0.78320   0.45020   0.50240   Biso      1.000     C          -0.121121           
         C10       1.0000    0.89080   0.30610   0.67830   Biso      1.000     C          -0.45211  
         C11       1.0000    0.72750   0.93610   0.03250   Biso      1.000     C          -0.102105           
         C12       1.0000    0.10920   0.69390   0.32170   Biso      1.000     C          -0.45211  
         H1        1.0000    0.95330   0.46950   0.34670   Biso      1.000     H          0.098436  
         H2        1.0000    0.73290   0.57560   0.35360   Biso      1.000     H          0.115348  
         H3        1.0000    0.09480   0.96770   0.80980   Biso      1.000     H          0.164544  
         H4        1.0000    0.46730   0.81660   0.01650   Biso      1.000     H          0.12769   
         H5        1.0000    0.17440   0.01570   0.02060   Biso      1.000     H          0.111791  
         H6        1.0000    0.64860   0.80990   0.91450   Biso      1.000     H          0.142627  
         H7        1.0000    0.30510   0.48970   0.44890   Biso      1.000     H          0.098399  
         H8        1.0000    0.18550   0.83150   0.87690   Biso      1.000     H          0.156096  
         H9        1.0000    0.32080   0.61000   0.52100   Biso      1.000     H          0.110424  
         H10       1.0000    0.17180   0.13110   0.92080   Biso      1.000     H          0.132208  
         H11       1.0000    0.97670   0.72780   0.27240   Biso      1.000     H          0.143798  
         H12       1.0000    0.48850   0.01720   0.84030   Biso      1.000     H          0.280953  
         H13       1.0000    0.35140   0.19010   0.08550   Biso      1.000     H          0.142627  
         H14       1.0000    0.82820   0.86890   0.07920   Biso      1.000     H          0.132207  
         H15       1.0000    0.82560   0.98430   0.97940   Biso      1.000     H          0.111791  
         H16       1.0000    0.81450   0.16850   0.12310   Biso      1.000     H          0.156096  
         H17       1.0000    0.90520   0.03230   0.19020   Biso      1.000     H          0.164543  
         H18       1.0000    0.26710   0.42440   0.64640   Biso      1.000     H          0.115347  
         H19       1.0000    0.04670   0.53050   0.65330   Biso      1.000     H          0.098437  
         H20       1.0000    0.69490   0.51030   0.55110   Biso      1.000     H          0.098399  
         H21       1.0000    0.67920   0.39000   0.47900   Biso      1.000     H          0.110424  
         H22       1.0000    0.79440   0.37220   0.71810   Biso      1.000     H          0.144056  
         H23       1.0000    0.02330   0.27220   0.72760   Biso      1.000     H          0.143797  
         H24       1.0000    0.51150   0.98280   0.15970   Biso      1.000     H          0.280953  
         H25       1.0000    0.20560   0.62780   0.28190   Biso      1.000     H          0.144057  
         H26       1.0000    0.53270   0.18340   0.98350   Biso      1.000     H          0.127691  
         La1       1.0000    0.21771   0.14523   0.47195   Biso      1.000     La          1.951338  
         La2       1.0000    0.78229   0.85477   0.52805   Biso      1.000     La          1.9513369999999999  
         N1        1.0000    0.97970   0.37250   0.57000   Biso      1.000     N          -0.136156           
         N2        1.0000    0.59930   0.02900   0.10850   Biso      1.000     N          0.027397  
         N3        1.0000    0.02030   0.62750   0.43000   Biso      1.000     N          -0.136156           
         N4        1.0000    0.40070   0.97100   0.89150   Biso      1.000     N          0.027397  
         O1        1.0000    0.88370   0.07290   0.59330   Biso      1.000     O          -0.8780540000000001           
         O2        1.0000    0.11290   0.78140   0.65760   Biso      1.000     O          -0.792682           
         O3        1.0000    0.31400   0.89030   0.21490   Biso      1.000     O          -0.8247389999999999           
         O4        1.0000    0.11630   0.92710   0.40670   Biso      1.000     O          -0.8780530000000001           
         O5        1.0000    0.50410   0.77750   0.40290   Biso      1.000     O          -0.819666           
         O6        1.0000    0.60740   0.04180   0.39170   Biso      1.000     O          -0.872977           
         O7        1.0000    0.44470   0.25780   0.29840   Biso      1.000     O          -0.823893           
         O8        1.0000    0.39260   0.95820   0.60830   Biso      1.000     O          -0.872976           
         O9        1.0000    0.68600   0.10970   0.78510   Biso      1.000     O          -0.824738           
         O10       1.0000    0.55530   0.74220   0.70160   Biso      1.000     O          -0.823893           
         O11       1.0000    0.49590   0.22250   0.59710   Biso      1.000     O          -0.819667           
         O12       1.0000    0.88710   0.21860   0.34240   Biso      1.000     O          -0.792683           
         P1        1.0000    0.72080   0.17009   0.66127   Biso      1.000     P          1.3359370000000002  
         P2        1.0000    0.67020   0.16013   0.30946   Biso      1.000     P          1.303739  
         P3        1.0000    0.27920   0.82991   0.33873   Biso      1.000     P          1.3359370000000002  
         P4        1.0000    0.32980   0.83987   0.69054   Biso      1.000     P          1.303739 