
##########################################################################
#               Crystallographic Information Format file
#               Produced by PyCifRW module
#
#  This is a CIF file.  CIF has been adopted by the International
#  Union of Crystallography as the standard for data archiving and
#  transmission.
#
#  For information on this file format, follow the CIF links at
#  http://www.iucr.org
##########################################################################

data_image0

_cell_length_a                          15.4191
_cell_length_b                          15.4191
_cell_length_c                          15.4191
_cell_angle_alpha                       68.7691
_cell_angle_beta                        73.9935
_cell_angle_gamma                       111.231
_symmetry_space_group_name_H-M          'P 1'
_symmetry_int_tables_number             1
loop_
  _symmetry_equiv_pos_as_xyz
         'x, y, z' 
loop_
  _atom_site_label
  _atom_site_occupancy
  _atom_site_fract_x
  _atom_site_fract_y
  _atom_site_fract_z
  _atom_site_thermal_displace_type
  _atom_site_B_iso_or_equiv
  _atom_site_type_symbol
  _atom_site_charge
         C1        1.0000    0.50480   0.38680   0.50700   Biso      1.000     C          0.40594600000000003           
         C2        1.0000    0.77190   0.23940   0.97550   Biso      1.000     C          -0.546501           
         C3        1.0000    0.56800   0.04290   0.83930   Biso      1.000     C          -0.5399510000000001           
         C4        1.0000    0.33930   0.40730   0.11780   Biso      1.000     C          -0.539955           
         C5        1.0000    0.36300   0.30170   0.50470   Biso      1.000     C          0.38169899999999995           
         C6        1.0000    0.28510   0.26060   0.46750   Biso      1.000     C          -0.546519           
         C7        1.0000    0.61780   0.45710   0.47490   Biso      1.000     C          -0.539957           
         C8        1.0000    0.99300   0.98820   0.89380   Biso      1.000     C          0.405932  
         C9        1.0000    0.99530   0.13230   0.80640   Biso      1.000     C          0.381684  
         C10       1.0000    0.03250   0.24740   0.72810   Biso      1.000     C          -0.546508           
         C11       1.0000    0.02510   0.90730   0.93200   Biso      1.000     C          -0.539963           
         C12       1.0000    0.61800   0.51180   0.99520   Biso      1.000     C          0.405947  
         C13       1.0000    0.56130   0.36770   0.13700   Biso      1.000     C          0.381684  
         C14       1.0000    0.52450   0.25260   0.21490   Biso      1.000     C          -0.546505           
         C15       1.0000    0.66070   0.59270   0.88220   Biso      1.000     C          -0.539955           
         C16       1.0000    0.47550   0.74740   0.78510   Biso      1.000     C          -0.546505           
         C17       1.0000    0.43870   0.63230   0.86300   Biso      1.000     C          0.381685  
         C18       1.0000    0.38200   0.48820   0.00480   Biso      1.000     C          0.40594600000000003           
         C19       1.0000    0.97490   0.09270   0.06800   Biso      1.000     C          -0.539963           
         C20       1.0000    0.96750   0.75260   0.27190   Biso      1.000     C          -0.546508           
         C21       1.0000    0.00470   0.86770   0.19360   Biso      1.000     C          0.381684  
         C22       1.0000    0.00700   0.01180   0.10620   Biso      1.000     C          0.405932  
         C23       1.0000    0.38220   0.54290   0.52510   Biso      1.000     C          -0.539956           
         C24       1.0000    0.71490   0.73940   0.53250   Biso      1.000     C          -0.546519           
         C25       1.0000    0.63700   0.69830   0.49530   Biso      1.000     C          0.3817    
         C26       1.0000    0.49520   0.61320   0.49300   Biso      1.000     C          0.40594600000000003           
         C27       1.0000    0.43200   0.95710   0.16070   Biso      1.000     C          -0.5399520000000001           
         C28       1.0000    0.22810   0.76060   0.02450   Biso      1.000     C          -0.546501           
         C29       1.0000    0.30640   0.80170   0.06130   Biso      1.000     C          0.381693  
         C30       1.0000    0.39380   0.88680   0.11800   Biso      1.000     C          0.405934  
         C31       1.0000    0.69360   0.19830   0.93870   Biso      1.000     C          0.381693  
         C32       1.0000    0.60620   0.11320   0.88200   Biso      1.000     C          0.405934  
         Cu1       1.0000    0.55255   0.80695   0.10854   Biso      1.000     Cu          0.153588  
         Cu2       1.0000    0.59752   0.32350   0.97092   Biso      1.000     Cu          0.27448   
         Cu3       1.0000    0.22598   0.93156   0.09752   Biso      1.000     Cu          0.274462  
         Cu4       1.0000    0.58451   0.69305   0.25440   Biso      1.000     Cu          0.153575  
         Cu5       1.0000    0.47092   0.56844   0.70558   Biso      1.000     Cu          0.274475  
         Cu6       1.0000    0.24560   0.16109   0.94745   Biso      1.000     Cu          0.153593  
         Cu7       1.0000    0.39146   0.33891   0.91549   Biso      1.000     Cu          0.153604  
         Cu8       1.0000    0.40248   0.67650   0.02908   Biso      1.000     Cu          0.27448   
         Cu9       1.0000    0.79442   0.82350   0.27402   Biso      1.000     Cu          0.27449   
         Cu10      1.0000    0.77402   0.06844   0.90248   Biso      1.000     Cu          0.274463  
         Cu11      1.0000    0.41549   0.30695   0.74560   Biso      1.000     Cu          0.153577  
         Cu12      1.0000    0.52908   0.43156   0.29442   Biso      1.000     Cu          0.274475  
         Cu13      1.0000    0.75440   0.83891   0.05255   Biso      1.000     Cu          0.153594  
         Cu14      1.0000    0.20558   0.17650   0.72598   Biso      1.000     Cu          0.274491  
         Cu15      1.0000    0.60854   0.66109   0.08451   Biso      1.000     Cu          0.153602  
         Cu16      1.0000    0.44745   0.19305   0.89146   Biso      1.000     Cu          0.153586  
         H1        1.0000    0.04570   0.91220   0.98550   Biso      1.000     H          0.17416900000000002           
         H2        1.0000    0.70460   0.57740   0.83780   Biso      1.000     H          0.169873  
         H3        1.0000    0.70330   0.66590   0.86820   Biso      1.000     H          0.174821  
         H4        1.0000    0.57860   0.23540   0.19120   Biso      1.000     H          0.177807  
         H5        1.0000    0.45910   0.20290   0.22020   Biso      1.000     H          0.173902  
         H6        1.0000    0.51180   0.24430   0.28410   Biso      1.000     H          0.166554  
         H7        1.0000    0.08480   0.92260   0.87280   Biso      1.000     H          0.16988   
         H8        1.0000    0.60230   0.58780   0.86650   Biso      1.000     H          0.17417   
         H9        1.0000    0.07340   0.26460   0.65680   Biso      1.000     H          0.177793  
         H10       1.0000    0.91520   0.07740   0.12720   Biso      1.000     H          0.16988   
         H11       1.0000    0.03410   0.16590   0.03740   Biso      1.000     H          0.174821  
         H12       1.0000    0.92660   0.73540   0.34320   Biso      1.000     H          0.177793  
         H13       1.0000    0.92310   0.70290   0.25620   Biso      1.000     H          0.173903  
         H14       1.0000    0.02840   0.74430   0.26750   Biso      1.000     H          0.166548  
         H15       1.0000    0.36650   0.46880   0.54570   Biso      1.000     H          0.17416900000000002           
         H16       1.0000    0.33780   0.54240   0.58480   Biso      1.000     H          0.169876  
         H17       1.0000    0.36820   0.57150   0.46590   Biso      1.000     H          0.174816  
         H18       1.0000    0.69120   0.76980   0.57340   Biso      1.000     H          0.177788  
         H19       1.0000    0.72020   0.67930   0.57690   Biso      1.000     H          0.173907  
         H20       1.0000    0.78410   0.79590   0.47160   Biso      1.000     H          0.166555  
         H21       1.0000    0.48550   0.03120   0.10230   Biso      1.000     H          0.174176  
         H22       1.0000    0.96590   0.83410   0.96260   Biso      1.000     H          0.17482   
         H23       1.0000    0.46260   0.92850   0.20330   Biso      1.000     H          0.174821  
         H24       1.0000    0.15680   0.73020   0.07860   Biso      1.000     H          0.17779   
         H25       1.0000    0.24380   0.82070   0.95910   Biso      1.000     H          0.17390799999999998           
         H26       1.0000    0.23250   0.70410   0.01180   Biso      1.000     H          0.166555  
         H27       1.0000    0.95430   0.08780   0.01450   Biso      1.000     H          0.17416800000000002           
         H28       1.0000    0.48820   0.75570   0.71590   Biso      1.000     H          0.166555  
         H29       1.0000    0.37280   0.95760   0.20460   Biso      1.000     H          0.169876  
         H30       1.0000    0.42140   0.76460   0.80880   Biso      1.000     H          0.177807  
         H31       1.0000    0.54090   0.79710   0.77980   Biso      1.000     H          0.173902  
         H32       1.0000    0.07690   0.29710   0.74380   Biso      1.000     H          0.173903  
         H33       1.0000    0.97160   0.25570   0.73250   Biso      1.000     H          0.166548  
         H34       1.0000    0.63350   0.53120   0.45430   Biso      1.000     H          0.17416900000000002           
         H35       1.0000    0.66220   0.45760   0.41520   Biso      1.000     H          0.169877  
         H36       1.0000    0.63180   0.42850   0.53410   Biso      1.000     H          0.174816  
         H37       1.0000    0.30880   0.23020   0.42660   Biso      1.000     H          0.177788  
         H38       1.0000    0.27980   0.32070   0.42310   Biso      1.000     H          0.173907  
         H39       1.0000    0.21590   0.20410   0.52840   Biso      1.000     H          0.166555  
         H40       1.0000    0.62720   0.04240   0.79540   Biso      1.000     H          0.169876  
         H41       1.0000    0.53740   0.07150   0.79670   Biso      1.000     H          0.174821  
         H42       1.0000    0.84320   0.26980   0.92140   Biso      1.000     H          0.17779   
         H43       1.0000    0.75620   0.17930   0.04090   Biso      1.000     H          0.17390799999999998           
         H44       1.0000    0.76750   0.29590   0.98820   Biso      1.000     H          0.166555  
         H45       1.0000    0.39770   0.41220   0.13350   Biso      1.000     H          0.17417   
         H46       1.0000    0.29540   0.42260   0.16220   Biso      1.000     H          0.169873  
         H47       1.0000    0.29670   0.33410   0.13180   Biso      1.000     H          0.174821  
         H48       1.0000    0.51450   0.96880   0.89770   Biso      1.000     H          0.174176  
         I1        1.0000    0.32474   0.07910   0.84046   Biso      1.000     I          -0.308628           
         I2        1.0000    0.74564   0.66520   0.17526   Biso      1.000     I          -0.308625           
         I3        1.0000    0.58044   0.42090   0.75436   Biso      1.000     I          -0.308643           
         I4        1.0000    0.65954   0.83480   0.91956   Biso      1.000     I          -0.308627           
         I5        1.0000    0.34046   0.16520   0.08044   Biso      1.000     I          -0.308626           
         I6        1.0000    0.67526   0.92090   0.15954   Biso      1.000     I          -0.308628           
         I7        1.0000    0.41956   0.57910   0.24564   Biso      1.000     I          -0.308643           
         I8        1.0000    0.25436   0.33480   0.82474   Biso      1.000     I          -0.308626           
         N1        1.0000    0.60090   0.53520   0.07150   Biso      1.000     N          -0.20733800000000002          
         N2        1.0000    0.89530   0.05850   0.87820   Biso      1.000     N          -0.24193299999999998          
         N3        1.0000    0.05890   0.09230   0.81420   Biso      1.000     N          -0.408476           
         N4        1.0000    0.89330   0.96480   0.93430   Biso      1.000     N          -0.207317           
         N5        1.0000    0.33680   0.27350   0.60470   Biso      1.000     N          -0.24193299999999998          
         N6        1.0000    0.46660   0.37310   0.44110   Biso      1.000     N          -0.408476           
         N7        1.0000    0.42850   0.32760   0.60670   Biso      1.000     N          -0.207323           
         N8        1.0000    0.62180   0.22650   0.93670   Biso      1.000     N          -0.24192600000000003          
         N9        1.0000    0.68580   0.12690   0.90650   Biso      1.000     N          -0.408465           
         N10       1.0000    0.56570   0.17240   0.89910   Biso      1.000     N          -0.20732199999999998          
         N11       1.0000    0.43670   0.55850   0.83680   Biso      1.000     N          -0.241923           
         N12       1.0000    0.39910   0.46480   0.92850   Biso      1.000     N          -0.20733000000000001          
         N13       1.0000    0.10470   0.94150   0.12180   Biso      1.000     N          -0.24193299999999998          
         N14       1.0000    0.94110   0.90770   0.18580   Biso      1.000     N          -0.408476           
         N15       1.0000    0.10670   0.03520   0.06570   Biso      1.000     N          -0.207317           
         N16       1.0000    0.66320   0.72650   0.39530   Biso      1.000     N          -0.24193299999999998          
         N17       1.0000    0.53340   0.62690   0.55890   Biso      1.000     N          -0.408476           
         N18       1.0000    0.57150   0.67240   0.39330   Biso      1.000     N          -0.20732199999999998          
         N19       1.0000    0.37820   0.77350   0.06330   Biso      1.000     N          -0.24192600000000003          
         N20       1.0000    0.31420   0.87310   0.09350   Biso      1.000     N          -0.408465           
         N21       1.0000    0.43430   0.82760   0.10090   Biso      1.000     N          -0.207323           
         N22       1.0000    0.59350   0.40770   0.03340   Biso      1.000     N          -0.40846  
         N23       1.0000    0.40650   0.59230   0.96660   Biso      1.000     N          -0.40846  
         N24       1.0000    0.56330   0.44150   0.16320   Biso      1.000     N          -0.241914 