
##########################################################################
#               Crystallographic Information Format file
#               Produced by PyCifRW module
#
#  This is a CIF file.  CIF has been adopted by the International
#  Union of Crystallography as the standard for data archiving and
#  transmission.
#
#  For information on this file format, follow the CIF links at
#  http://www.iucr.org
##########################################################################

data_image0

_cell_length_a                          15.4721
_cell_length_b                          15.4721
_cell_length_c                          15.4721
_cell_angle_alpha                       67.8468
_cell_angle_beta                        75.769
_cell_angle_gamma                       112.153
_symmetry_space_group_name_H-M          'P 1'
_symmetry_int_tables_number             1
loop_
  _symmetry_equiv_pos_as_xyz
         'x, y, z' 
loop_
  _atom_site_label
  _atom_site_occupancy
  _atom_site_fract_x
  _atom_site_fract_y
  _atom_site_fract_z
  _atom_site_thermal_displace_type
  _atom_site_B_iso_or_equiv
  _atom_site_type_symbol
  _atom_site_charge
         C1        1.0000    0.47930   0.05300   0.60990   Biso      1.000     C          -0.380965           
         C2        1.0000    0.51060   0.11960   0.49680   Biso      1.000     C          0.362473  
         C3        1.0000    0.94470   0.29910   0.69340   Biso      1.000     C          0.404396  
         C4        1.0000    0.98330   0.25670   0.77120   Biso      1.000     C          -0.5643   
         C5        1.0000    0.88360   0.38040   0.60900   Biso      1.000     C          0.36248   
         C6        1.0000    0.83710   0.44700   0.57370   Biso      1.000     C          -0.380934           
         C7        1.0000    0.80660   0.36190   0.99250   Biso      1.000     C          0.404396  
         C8        1.0000    0.72880   0.24550   0.02790   Biso      1.000     C          -0.564313           
         C9        1.0000    0.89100   0.50740   0.98940   Biso      1.000     C          0.362466  
         C10       1.0000    0.92630   0.58920   0.02070   Biso      1.000     C          -0.380931           
         C11       1.0000    0.14560   0.13810   0.55530   Biso      1.000     C          0.404377  
         C12       1.0000    0.22660   0.25450   0.51670   Biso      1.000     C          -0.564297           
         C13       1.0000    0.00320   0.99260   0.61640   Biso      1.000     C          0.362501  
         C14       1.0000    0.89010   0.91080   0.66290   Biso      1.000     C          -0.380975           
         C15       1.0000    0.49250   0.79910   0.64560   Biso      1.000     C          0.404396  
         C16       1.0000    0.52790   0.75670   0.72660   Biso      1.000     C          -0.564303           
         C17       1.0000    0.48940   0.88040   0.50320   Biso      1.000     C          0.362474  
         C18       1.0000    0.52070   0.94700   0.39010   Biso      1.000     C          -0.380964           
         C19       1.0000    0.05530   0.70090   0.30660   Biso      1.000     C          0.404396  
         C20       1.0000    0.01670   0.74330   0.22880   Biso      1.000     C          -0.5643   
         C21       1.0000    0.11640   0.61960   0.39100   Biso      1.000     C          0.36248   
         C22       1.0000    0.16290   0.55300   0.42630   Biso      1.000     C          -0.380934           
         C23       1.0000    0.19340   0.63810   0.00750   Biso      1.000     C          0.404396  
         C24       1.0000    0.27120   0.75450   0.97210   Biso      1.000     C          -0.564313           
         C25       1.0000    0.10900   0.49260   0.01060   Biso      1.000     C          0.362466  
         C26       1.0000    0.07370   0.41080   0.97930   Biso      1.000     C          -0.380931           
         C27       1.0000    0.85440   0.86190   0.44470   Biso      1.000     C          0.404377  
         C28       1.0000    0.77340   0.74550   0.48330   Biso      1.000     C          -0.564297           
         C29       1.0000    0.99680   0.00740   0.38360   Biso      1.000     C          0.362502  
         C30       1.0000    0.10990   0.08920   0.33710   Biso      1.000     C          -0.380975           
         C31       1.0000    0.47210   0.24330   0.27340   Biso      1.000     C          -0.564303           
         C32       1.0000    0.50750   0.20090   0.35440   Biso      1.000     C          0.404397  
         Cu1       1.0000    0.74482   0.19218   0.41398   Biso      1.000     Cu          0.153431  
         Cu2       1.0000    0.94736   0.34120   0.24482   Biso      1.000     Cu          0.153432  
         Cu3       1.0000    0.69973   0.92499   0.48170   Biso      1.000     Cu          0.288191  
         Cu4       1.0000    0.91398   0.15880   0.39384   Biso      1.000     Cu          0.153437  
         Cu5       1.0000    0.01830   0.81857   0.40669   Biso      1.000     Cu          0.288197  
         Cu6       1.0000    0.10616   0.69218   0.55264   Biso      1.000     Cu          0.153437  
         Cu7       1.0000    0.27474   0.68143   0.80027   Biso      1.000     Cu          0.288186  
         Cu8       1.0000    0.25518   0.80782   0.58602   Biso      1.000     Cu          0.153432  
         Cu9       1.0000    0.09331   0.57501   0.22526   Biso      1.000     Cu          0.288161  
         Cu10      1.0000    0.08602   0.84120   0.60616   Biso      1.000     Cu          0.153438  
         Cu11      1.0000    0.90669   0.42499   0.77474   Biso      1.000     Cu          0.288161  
         Cu12      1.0000    0.05264   0.65880   0.75518   Biso      1.000     Cu          0.153431  
         Cu13      1.0000    0.98170   0.18143   0.59331   Biso      1.000     Cu          0.288198  
         Cu14      1.0000    0.89384   0.30782   0.44736   Biso      1.000     Cu          0.153435  
         Cu15      1.0000    0.72526   0.31857   0.19973   Biso      1.000     Cu          0.288187  
         Cu16      1.0000    0.30027   0.07501   0.51830   Biso      1.000     Cu          0.28819   
         H1        1.0000    0.88190   0.52040   0.55590   Biso      1.000     H          0.141957  
         H2        1.0000    0.82990   0.44830   0.51340   Biso      1.000     H          0.145735  
         H3        1.0000    0.04380   0.31710   0.76050   Biso      1.000     H          0.183079  
         H4        1.0000    0.92920   0.21900   0.84100   Biso      1.000     H          0.185539  
         H5        1.0000    0.00180   0.20720   0.76140   Biso      1.000     H          0.174268  
         H6        1.0000    0.44000   0.28100   0.28980   Biso      1.000     H          0.185537  
         H7        1.0000    0.53830   0.05170   0.61840   Biso      1.000     H          0.145752  
         H8        1.0000    0.42240   0.18290   0.27330   Biso      1.000     H          0.183069  
         H9        1.0000    0.53140   0.29280   0.20540   Biso      1.000     H          0.174266  
         H10       1.0000    0.73860   0.23680   0.96860   Biso      1.000     H          0.17426   
         H11       1.0000    0.21020   0.27020   0.57080   Biso      1.000     H          0.185553  
         H12       1.0000    0.42370   0.97960   0.63850   Biso      1.000     H          0.141959  
         H13       1.0000    0.65900   0.22980   0.06000   Biso      1.000     H          0.18555   
         H14       1.0000    0.22670   0.30430   0.45620   Biso      1.000     H          0.183075  
         H15       1.0000    0.56000   0.71900   0.71020   Biso      1.000     H          0.185537  
         H16       1.0000    0.88160   0.84330   0.67010   Biso      1.000     H          0.145745  
         H17       1.0000    0.86150   0.93780   0.61810   Biso      1.000     H          0.141954  
         H18       1.0000    0.46860   0.70720   0.79460   Biso      1.000     H          0.174266  
         H19       1.0000    0.57760   0.81710   0.72670   Biso      1.000     H          0.183069  
         H20       1.0000    0.46170   0.94830   0.38160   Biso      1.000     H          0.145752  
         H21       1.0000    0.57630   0.02040   0.36150   Biso      1.000     H          0.141959  
         H22       1.0000    0.99820   0.79280   0.23860   Biso      1.000     H          0.174268  
         H23       1.0000    0.07080   0.78100   0.15900   Biso      1.000     H          0.185538  
         H24       1.0000    0.95620   0.68290   0.23950   Biso      1.000     H          0.183079  
         H25       1.0000    0.17010   0.55170   0.48660   Biso      1.000     H          0.145735  
         H26       1.0000    0.73950   0.19570   0.07760   Biso      1.000     H          0.183077  
         H27       1.0000    0.26140   0.76320   0.03140   Biso      1.000     H          0.17426   
         H28       1.0000    0.11810   0.47960   0.44410   Biso      1.000     H          0.141957  
         H29       1.0000    0.26050   0.80430   0.92240   Biso      1.000     H          0.183077  
         H30       1.0000    0.01340   0.34330   0.03830   Biso      1.000     H          0.145736  
         H31       1.0000    0.05590   0.43780   0.92370   Biso      1.000     H          0.141949  
         H32       1.0000    0.70540   0.73680   0.50180   Biso      1.000     H          0.17426   
         H33       1.0000    0.78980   0.72980   0.42920   Biso      1.000     H          0.185553  
         H34       1.0000    0.77330   0.69570   0.54380   Biso      1.000     H          0.183075  
         H35       1.0000    0.11840   0.15670   0.32990   Biso      1.000     H          0.145745  
         H36       1.0000    0.13850   0.06220   0.38190   Biso      1.000     H          0.141954  
         H37       1.0000    0.29460   0.26320   0.49820   Biso      1.000     H          0.17426   
         H38       1.0000    0.94410   0.56220   0.07630   Biso      1.000     H          0.141949  
         H39       1.0000    0.98660   0.65670   0.96170   Biso      1.000     H          0.145736  
         H40       1.0000    0.34100   0.77020   0.94000   Biso      1.000     H          0.18555   
         I1        1.0000    0.07974   0.33428   0.34226   Biso      1.000     I          -0.290064           
         I2        1.0000    0.82346   0.16572   0.25454   Biso      1.000     I          -0.290067           
         I3        1.0000    0.15774   0.57800   0.67654   Biso      1.000     I          -0.290069           
         I4        1.0000    0.24546   0.92200   0.42026   Biso      1.000     I          -0.290095           
         I5        1.0000    0.17654   0.83428   0.74546   Biso      1.000     I          -0.290067           
         I6        1.0000    0.84226   0.42200   0.32346   Biso      1.000     I          -0.290069           
         I7        1.0000    0.75454   0.07800   0.57974   Biso      1.000     I          -0.290095           
         I8        1.0000    0.92026   0.66572   0.65774   Biso      1.000     I          -0.290064           
         N1        1.0000    0.39200   0.82640   0.57780   Biso      1.000     N          -0.177438           
         N2        1.0000    0.92220   0.03020   0.40420   Biso      1.000     N          -0.177449           
         N3        1.0000    0.18810   0.59730   0.94600   Biso      1.000     N          -0.396935           
         N4        1.0000    0.12080   0.56440   0.10540   Biso      1.000     N          -0.229377           
         N5        1.0000    0.06560   0.46980   0.10800   Biso      1.000     N          -0.177446           
         N6        1.0000    0.09080   0.63410   0.31190   Biso      1.000     N          -0.39693  
         N7        1.0000    0.05640   0.72620   0.37920   Biso      1.000     N          -0.229375           
         N8        1.0000    0.09580   0.67360   0.43440   Biso      1.000     N          -0.177437           
         N9        1.0000    0.55400   0.86590   0.54330   Biso      1.000     N          -0.39695  
         N10       1.0000    0.39460   0.77380   0.66980   Biso      1.000     N          -0.229353           
         N11       1.0000    0.04330   0.09730   0.59080   Biso      1.000     N          -0.396914           
         N12       1.0000    0.83020   0.93560   0.44360   Biso      1.000     N          -0.229361           
         N13       1.0000    0.07780   0.96980   0.59580   Biso      1.000     N          -0.177449           
         N14       1.0000    0.81190   0.40270   0.05400   Biso      1.000     N          -0.396936           
         N15       1.0000    0.87920   0.43560   0.89460   Biso      1.000     N          -0.229377           
         N16       1.0000    0.93440   0.53020   0.89200   Biso      1.000     N          -0.177446           
         N17       1.0000    0.90920   0.36590   0.68810   Biso      1.000     N          -0.39693  
         N18       1.0000    0.94360   0.27380   0.62080   Biso      1.000     N          -0.229375           
         N19       1.0000    0.90420   0.32640   0.56560   Biso      1.000     N          -0.177437           
         N20       1.0000    0.44600   0.13410   0.45670   Biso      1.000     N          -0.39695  
         N21       1.0000    0.60540   0.22620   0.33020   Biso      1.000     N          -0.229362           
         N22       1.0000    0.60800   0.17360   0.42220   Biso      1.000     N          -0.177429           
         N23       1.0000    0.16980   0.06440   0.55640   Biso      1.000     N          -0.229361           
         N24       1.0000    0.95670   0.90270   0.40920   Biso      1.000     N          -0.396914 