
##########################################################################
#               Crystallographic Information Format file
#               Produced by PyCifRW module
#
#  This is a CIF file.  CIF has been adopted by the International
#  Union of Crystallography as the standard for data archiving and
#  transmission.
#
#  For information on this file format, follow the CIF links at
#  http://www.iucr.org
##########################################################################

data_image0

_cell_length_a                          38.503
_cell_length_b                          9.4511
_cell_length_c                          9.8023
_cell_angle_alpha                       90
_cell_angle_beta                        100.578
_cell_angle_gamma                       90
_symmetry_space_group_name_H-M          'P 1'
_symmetry_int_tables_number             1
loop_
  _symmetry_equiv_pos_as_xyz
         'x, y, z' 
loop_
  _atom_site_label
  _atom_site_occupancy
  _atom_site_fract_x
  _atom_site_fract_y
  _atom_site_fract_z
  _atom_site_thermal_displace_type
  _atom_site_B_iso_or_equiv
  _atom_site_type_symbol
  _atom_site_charge
         C1        1.0000    0.24891   0.56900   0.75830   Biso      1.000     C          0.411752  
         C2        1.0000    0.43910   0.99930   0.55900   Biso      1.000     C          -0.160467           
         C3        1.0000    0.44110   0.81340   0.39940   Biso      1.000     C          -0.155432           
         C4        1.0000    0.40570   0.78150   0.40240   Biso      1.000     C          -0.107944           
         C5        1.0000    0.40400   0.96220   0.56510   Biso      1.000     C          -0.097156           
         C6        1.0000    0.38760   0.85840   0.48120   Biso      1.000     C          -0.02462  
         C7        1.0000    0.34900   0.82510   0.48340   Biso      1.000     C          0.60324   
         C8        1.0000    0.17660   0.06330   0.37360   Biso      1.000     C          -0.568768           
         C9        1.0000    0.27680   0.92250   0.14380   Biso      1.000     C          -0.568745           
         C10       1.0000    0.20770   0.99220   0.33560   Biso      1.000     C          0.431853  
         C11       1.0000    0.25109   0.93100   0.24170   Biso      1.000     C          0.411752  
         C12       1.0000    0.04290   0.57990   0.52300   Biso      1.000     C          0.180979  
         C13       1.0000    0.29230   0.50780   0.66440   Biso      1.000     C          0.431854  
         C14       1.0000    0.22320   0.57750   0.85620   Biso      1.000     C          -0.568745           
         C15       1.0000    0.45710   0.07990   0.97700   Biso      1.000     C          0.180972  
         C16       1.0000    0.95710   0.42010   0.47700   Biso      1.000     C          0.180972  
         C17       1.0000    0.93910   0.49930   0.55900   Biso      1.000     C          -0.160453           
         C18       1.0000    0.94110   0.31340   0.39940   Biso      1.000     C          -0.155407           
         C19       1.0000    0.90570   0.28150   0.40240   Biso      1.000     C          -0.107947           
         C20       1.0000    0.90400   0.46220   0.56510   Biso      1.000     C          -0.097159           
         C21       1.0000    0.88760   0.35840   0.48120   Biso      1.000     C          -0.024619           
         C22       1.0000    0.84900   0.32510   0.48340   Biso      1.000     C          0.60324   
         C23       1.0000    0.67660   0.56330   0.37360   Biso      1.000     C          -0.568767           
         C24       1.0000    0.77680   0.42250   0.14380   Biso      1.000     C          -0.568744           
         C25       1.0000    0.70770   0.49220   0.33560   Biso      1.000     C          0.431854  
         C26       1.0000    0.75109   0.43100   0.24170   Biso      1.000     C          0.411751  
         C27       1.0000    0.45710   0.92010   0.47700   Biso      1.000     C          0.181011  
         C28       1.0000    0.54290   0.07990   0.52300   Biso      1.000     C          0.180973  
         C29       1.0000    0.06090   0.50070   0.44100   Biso      1.000     C          -0.160457           
         C30       1.0000    0.05890   0.68660   0.60060   Biso      1.000     C          -0.155409           
         C31       1.0000    0.43910   0.00070   0.05900   Biso      1.000     C          -0.160452           
         C32       1.0000    0.44110   0.18660   0.89940   Biso      1.000     C          -0.155407           
         C33       1.0000    0.40570   0.21850   0.90240   Biso      1.000     C          -0.107947           
         C34       1.0000    0.40400   0.03780   0.06510   Biso      1.000     C          -0.097159           
         C35       1.0000    0.38760   0.14160   0.98120   Biso      1.000     C          -0.024619           
         C36       1.0000    0.34900   0.17490   0.98340   Biso      1.000     C          0.60324   
         C37       1.0000    0.17660   0.93670   0.87360   Biso      1.000     C          -0.568768           
         C38       1.0000    0.27680   0.07750   0.64380   Biso      1.000     C          -0.568745           
         C39       1.0000    0.20770   0.00780   0.83560   Biso      1.000     C          0.431853  
         C40       1.0000    0.25109   0.06900   0.74170   Biso      1.000     C          0.411752  
         C41       1.0000    0.32340   0.43670   0.62640   Biso      1.000     C          -0.568768           
         C42       1.0000    0.15100   0.67490   0.51660   Biso      1.000     C          0.603243  
         C43       1.0000    0.79230   0.00780   0.66440   Biso      1.000     C          0.431854  
         C44       1.0000    0.11240   0.64160   0.51880   Biso      1.000     C          -0.024655           
         C45       1.0000    0.95710   0.57990   0.97700   Biso      1.000     C          0.180972  
         C46       1.0000    0.93910   0.50070   0.05900   Biso      1.000     C          -0.160453           
         C47       1.0000    0.94110   0.68660   0.89940   Biso      1.000     C          -0.155408           
         C48       1.0000    0.90570   0.71850   0.90240   Biso      1.000     C          -0.107947           
         C49       1.0000    0.90400   0.53780   0.06510   Biso      1.000     C          -0.097159           
         C50       1.0000    0.88760   0.64160   0.98120   Biso      1.000     C          -0.024619           
         C51       1.0000    0.84900   0.67490   0.98340   Biso      1.000     C          0.60324   
         C52       1.0000    0.67660   0.43670   0.87360   Biso      1.000     C          -0.568768           
         C53       1.0000    0.77680   0.57750   0.64380   Biso      1.000     C          -0.568744           
         C54       1.0000    0.70770   0.50780   0.83560   Biso      1.000     C          0.431853  
         C55       1.0000    0.75109   0.56900   0.74170   Biso      1.000     C          0.411752  
         C56       1.0000    0.09430   0.71850   0.59760   Biso      1.000     C          -0.107922           
         C57       1.0000    0.09600   0.53780   0.43490   Biso      1.000     C          -0.097142           
         C58       1.0000    0.72320   0.07750   0.85620   Biso      1.000     C          -0.568744           
         C59       1.0000    0.74891   0.06900   0.75830   Biso      1.000     C          0.411752  
         C60       1.0000    0.82340   0.06330   0.12640   Biso      1.000     C          -0.568768           
         C61       1.0000    0.32340   0.56330   0.12640   Biso      1.000     C          -0.568768           
         C62       1.0000    0.72320   0.92250   0.35620   Biso      1.000     C          -0.568745           
         C63       1.0000    0.79230   0.99220   0.16440   Biso      1.000     C          0.431854  
         C64       1.0000    0.74891   0.93100   0.25830   Biso      1.000     C          0.411752  
         C65       1.0000    0.11240   0.35840   0.01880   Biso      1.000     C          -0.024655           
         C66       1.0000    0.09600   0.46220   0.93490   Biso      1.000     C          -0.09714  
         C67       1.0000    0.22320   0.42250   0.35620   Biso      1.000     C          -0.568745           
         C68       1.0000    0.65100   0.82510   0.01660   Biso      1.000     C          0.603243  
         C69       1.0000    0.61240   0.85840   0.01880   Biso      1.000     C          -0.024655           
         C70       1.0000    0.65100   0.17490   0.51660   Biso      1.000     C          0.603243  
         C71       1.0000    0.59600   0.96220   0.93490   Biso      1.000     C          -0.09714  
         C72       1.0000    0.09430   0.28150   0.09760   Biso      1.000     C          -0.107922           
         C73       1.0000    0.29230   0.49220   0.16440   Biso      1.000     C          0.431854  
         C74       1.0000    0.15100   0.32510   0.01660   Biso      1.000     C          0.603243  
         C75       1.0000    0.59430   0.78150   0.09760   Biso      1.000     C          -0.107919           
         C76       1.0000    0.61240   0.14160   0.51880   Biso      1.000     C          -0.024654           
         C77       1.0000    0.55890   0.81340   0.10060   Biso      1.000     C          -0.155435           
         C78       1.0000    0.24891   0.43100   0.25830   Biso      1.000     C          0.411752  
         C79       1.0000    0.55890   0.18660   0.60060   Biso      1.000     C          -0.155411           
         C80       1.0000    0.59430   0.21850   0.59760   Biso      1.000     C          -0.107922           
         C81       1.0000    0.56090   0.99930   0.94100   Biso      1.000     C          -0.160469           
         C82       1.0000    0.06090   0.49930   0.94100   Biso      1.000     C          -0.160467           
         C83       1.0000    0.82340   0.93670   0.62640   Biso      1.000     C          -0.568768           
         C84       1.0000    0.04290   0.42010   0.02300   Biso      1.000     C          0.180988  
         C85       1.0000    0.59600   0.03780   0.43490   Biso      1.000     C          -0.097142           
         C86       1.0000    0.56090   0.00070   0.44100   Biso      1.000     C          -0.160455           
         C87       1.0000    0.05890   0.31340   0.10060   Biso      1.000     C          -0.15541  
         C88       1.0000    0.54290   0.92010   0.02300   Biso      1.000     C          0.181012  
         H1        1.0000    0.10530   0.20680   0.15040   Biso      1.000     H          0.110596  
         H2        1.0000    0.95340   0.73920   0.84380   Biso      1.000     H          0.124291  
         H3        1.0000    0.89200   0.49130   0.12630   Biso      1.000     H          0.112808  
         H4        1.0000    0.89470   0.79320   0.84960   Biso      1.000     H          0.110598  
         H5        1.0000    0.10800   0.50870   0.87370   Biso      1.000     H          0.112807  
         H6        1.0000    0.65980   0.41580   0.79100   Biso      1.000     H          0.199159  
         H7        1.0000    0.68390   0.35030   0.92200   Biso      1.000     H          0.188259  
         H8        1.0000    0.66590   0.49770   0.93240   Biso      1.000     H          0.187662  
         H9        1.0000    0.94990   0.42420   0.10940   Biso      1.000     H          0.113995  
         H10       1.0000    0.70070   0.10970   0.80680   Biso      1.000     H          0.195714  
         H11       1.0000    0.34020   0.58420   0.20900   Biso      1.000     H          0.199159  
         H12       1.0000    0.44990   0.92420   0.10940   Biso      1.000     H          0.113995  
         H13       1.0000    0.55010   0.92420   0.39060   Biso      1.000     H          0.113996  
         H14       1.0000    0.45340   0.23920   0.84380   Biso      1.000     H          0.124291  
         H15       1.0000    0.39470   0.29320   0.84960   Biso      1.000     H          0.110598  
         H16       1.0000    0.54660   0.23920   0.65620   Biso      1.000     H          0.124291  
         H17       1.0000    0.39200   0.99130   0.12630   Biso      1.000     H          0.112808  
         H18       1.0000    0.60530   0.29320   0.65040   Biso      1.000     H          0.110595  
         H19       1.0000    0.18390   0.85030   0.92200   Biso      1.000     H          0.188259  
         H20       1.0000    0.15980   0.91580   0.79100   Biso      1.000     H          0.19916   
         H21       1.0000    0.16590   0.99770   0.93240   Biso      1.000     H          0.187662  
         H22       1.0000    0.26810   0.14260   0.57030   Biso      1.000     H          0.177175  
         H23       1.0000    0.27950   0.98560   0.60530   Biso      1.000     H          0.18747   
         H24       1.0000    0.29930   0.10970   0.69320   Biso      1.000     H          0.195714  
         H25       1.0000    0.20070   0.39030   0.30680   Biso      1.000     H          0.195714  
         H26       1.0000    0.22050   0.51440   0.39470   Biso      1.000     H          0.18747   
         H27       1.0000    0.23190   0.35740   0.42970   Biso      1.000     H          0.177175  
         H28       1.0000    0.33410   0.49770   0.56760   Biso      1.000     H          0.187662  
         H29       1.0000    0.76810   0.64260   0.57030   Biso      1.000     H          0.177175  
         H30       1.0000    0.34020   0.41580   0.70900   Biso      1.000     H          0.199159  
         H31       1.0000    0.31610   0.35030   0.57800   Biso      1.000     H          0.188259  
         H32       1.0000    0.33410   0.50230   0.06760   Biso      1.000     H          0.187662  
         H33       1.0000    0.31610   0.64970   0.07800   Biso      1.000     H          0.188259  
         H34       1.0000    0.77950   0.48560   0.60530   Biso      1.000     H          0.18747   
         H35       1.0000    0.04660   0.73920   0.65620   Biso      1.000     H          0.124292  
         H36       1.0000    0.04660   0.26080   0.15620   Biso      1.000     H          0.124292  
         H37       1.0000    0.84020   0.08420   0.20900   Biso      1.000     H          0.19916   
         H38       1.0000    0.20070   0.60970   0.80680   Biso      1.000     H          0.195714  
         H39       1.0000    0.81610   0.14970   0.07800   Biso      1.000     H          0.188259  
         H40       1.0000    0.94990   0.57580   0.60940   Biso      1.000     H          0.113995  
         H41       1.0000    0.95340   0.26080   0.34380   Biso      1.000     H          0.124291  
         H42       1.0000    0.60800   0.00870   0.87370   Biso      1.000     H          0.112807  
         H43       1.0000    0.89470   0.20680   0.34960   Biso      1.000     H          0.110597  
         H44       1.0000    0.89200   0.50870   0.62630   Biso      1.000     H          0.112808  
         H45       1.0000    0.60530   0.70680   0.15040   Biso      1.000     H          0.110595  
         H46       1.0000    0.54660   0.76080   0.15620   Biso      1.000     H          0.124294  
         H47       1.0000    0.68390   0.64970   0.42200   Biso      1.000     H          0.188259  
         H48       1.0000    0.65980   0.58420   0.29100   Biso      1.000     H          0.199159  
         H49       1.0000    0.66590   0.50230   0.43240   Biso      1.000     H          0.187662  
         H50       1.0000    0.76810   0.35740   0.07030   Biso      1.000     H          0.177175  
         H51       1.0000    0.77950   0.51440   0.10530   Biso      1.000     H          0.18747   
         H52       1.0000    0.79930   0.39030   0.19320   Biso      1.000     H          0.195714  
         H53       1.0000    0.55010   0.07580   0.89060   Biso      1.000     H          0.113995  
         H54       1.0000    0.83410   0.99770   0.56760   Biso      1.000     H          0.187662  
         H55       1.0000    0.73190   0.14260   0.92970   Biso      1.000     H          0.177175  
         H56       1.0000    0.22050   0.48560   0.89470   Biso      1.000     H          0.18747   
         H57       1.0000    0.79930   0.60970   0.69320   Biso      1.000     H          0.195714  
         H58       1.0000    0.83410   0.00230   0.06760   Biso      1.000     H          0.187662  
         H59       1.0000    0.73190   0.85740   0.42970   Biso      1.000     H          0.177175  
         H60       1.0000    0.05010   0.57580   0.89060   Biso      1.000     H          0.113995  
         H61       1.0000    0.10800   0.49130   0.37370   Biso      1.000     H          0.112807  
         H62       1.0000    0.10530   0.79320   0.65040   Biso      1.000     H          0.110595  
         H63       1.0000    0.72050   0.98560   0.89470   Biso      1.000     H          0.18747   
         H64       1.0000    0.60800   0.99130   0.37370   Biso      1.000     H          0.112807  
         H65       1.0000    0.44990   0.07580   0.60940   Biso      1.000     H          0.113995  
         H66       1.0000    0.45340   0.76080   0.34380   Biso      1.000     H          0.124293  
         H67       1.0000    0.81610   0.85030   0.57800   Biso      1.000     H          0.188259  
         H68       1.0000    0.39470   0.70680   0.34960   Biso      1.000     H          0.110597  
         H69       1.0000    0.84020   0.91580   0.70900   Biso      1.000     H          0.199159  
         H70       1.0000    0.39200   0.00870   0.62630   Biso      1.000     H          0.112808  
         H71       1.0000    0.18390   0.14970   0.42200   Biso      1.000     H          0.188259  
         H72       1.0000    0.15980   0.08420   0.29100   Biso      1.000     H          0.199159  
         H73       1.0000    0.16590   0.00230   0.43240   Biso      1.000     H          0.187662  
         H74       1.0000    0.70070   0.89030   0.30680   Biso      1.000     H          0.195714  
         H75       1.0000    0.26810   0.85740   0.07030   Biso      1.000     H          0.177175  
         H76       1.0000    0.27950   0.01440   0.10530   Biso      1.000     H          0.18747   
         H77       1.0000    0.29930   0.89030   0.19320   Biso      1.000     H          0.195714  
         H78       1.0000    0.72050   0.01440   0.39470   Biso      1.000     H          0.18747   
         H79       1.0000    0.05010   0.42420   0.39060   Biso      1.000     H          0.113994  
         H80       1.0000    0.23190   0.64260   0.92970   Biso      1.000     H          0.177175  
         N1        1.0000    0.49350   0.94660   0.46840   Biso      1.000     N          -0.133492           
         N2        1.0000    0.77630   0.11600   0.59120   Biso      1.000     N          -0.276332           
         N3        1.0000    0.77621   0.97390   0.77020   Biso      1.000     N          -0.444061           
         N4        1.0000    0.00650   0.55340   0.53160   Biso      1.000     N          -0.133489           
         N5        1.0000    0.74843   0.15460   0.65360   Biso      1.000     N          -0.257824           
         N6        1.0000    0.50650   0.05340   0.53160   Biso      1.000     N          -0.133418           
         N7        1.0000    0.25157   0.84540   0.34640   Biso      1.000     N          -0.257831           
         N8        1.0000    0.72370   0.38400   0.40880   Biso      1.000     N          -0.276332           
         N9        1.0000    0.75157   0.34540   0.34640   Biso      1.000     N          -0.257823           
         N10       1.0000    0.50650   0.94660   0.03160   Biso      1.000     N          -0.133492           
         N11       1.0000    0.22370   0.88400   0.40880   Biso      1.000     N          -0.276325           
         N12       1.0000    0.22379   0.02610   0.22980   Biso      1.000     N          -0.444061           
         N13       1.0000    0.77621   0.02610   0.27020   Biso      1.000     N          -0.44406  
         N14       1.0000    0.77630   0.88400   0.09120   Biso      1.000     N          -0.276332           
         N15       1.0000    0.74843   0.84540   0.15360   Biso      1.000     N          -0.257824           
         N16       1.0000    0.75157   0.65460   0.84640   Biso      1.000     N          -0.257831           
         N17       1.0000    0.72370   0.61600   0.90880   Biso      1.000     N          -0.276325           
         N18       1.0000    0.72379   0.47390   0.72980   Biso      1.000     N          -0.444061           
         N19       1.0000    0.99350   0.44660   0.46840   Biso      1.000     N          -0.133418           
         N20       1.0000    0.00650   0.44660   0.03160   Biso      1.000     N          -0.13349  
         N21       1.0000    0.99350   0.55340   0.96840   Biso      1.000     N          -0.133418           
         N22       1.0000    0.25157   0.15460   0.84640   Biso      1.000     N          -0.257831           
         N23       1.0000    0.22370   0.11600   0.90880   Biso      1.000     N          -0.276325           
         N24       1.0000    0.22379   0.97390   0.72980   Biso      1.000     N          -0.44406  
         N25       1.0000    0.27621   0.52610   0.27020   Biso      1.000     N          -0.444061           
         N26       1.0000    0.27630   0.38400   0.09120   Biso      1.000     N          -0.276332           
         N27       1.0000    0.49350   0.05340   0.96840   Biso      1.000     N          -0.133418           
         N28       1.0000    0.24843   0.34540   0.15360   Biso      1.000     N          -0.257823           
         N29       1.0000    0.24843   0.65460   0.65360   Biso      1.000     N          -0.25783  
         N30       1.0000    0.27630   0.61600   0.59120   Biso      1.000     N          -0.276325           
         N31       1.0000    0.27621   0.47390   0.77020   Biso      1.000     N          -0.444061           
         N32       1.0000    0.72379   0.52610   0.22980   Biso      1.000     N          -0.444061           
         O1        1.0000    0.16480   0.22660   0.09150   Biso      1.000     O          -0.586264           
         O2        1.0000    0.66480   0.72660   0.09150   Biso      1.000     O          -0.586264           
         O3        1.0000    0.66700   0.89400   0.94920   Biso      1.000     O          -0.565576           
         O4        1.0000    0.16700   0.39400   0.94920   Biso      1.000     O          -0.565576           
         O5        1.0000    0.16480   0.77340   0.59150   Biso      1.000     O          -0.586264           
         O6        1.0000    0.83300   0.39400   0.55080   Biso      1.000     O          -0.565576           
         O7        1.0000    0.66700   0.10600   0.44920   Biso      1.000     O          -0.565576           
         O8        1.0000    0.66480   0.27340   0.59150   Biso      1.000     O          -0.586264           
         O9        1.0000    0.33300   0.10600   0.05080   Biso      1.000     O          -0.565576           
         O10       1.0000    0.16700   0.60600   0.44920   Biso      1.000     O          -0.565576           
         O11       1.0000    0.33520   0.27340   0.90850   Biso      1.000     O          -0.586264           
         O12       1.0000    0.33520   0.72660   0.40850   Biso      1.000     O          -0.586263           
         O13       1.0000    0.33300   0.89400   0.55080   Biso      1.000     O          -0.565576           
         O14       1.0000    0.83520   0.22660   0.40850   Biso      1.000     O          -0.586263           
         O15       1.0000    0.83520   0.77340   0.90850   Biso      1.000     O          -0.586263           
         O16       1.0000    0.83300   0.60600   0.05080   Biso      1.000     O          -0.565575           
         Zn1       1.0000    0.21400   0.81194   0.59078   Biso      1.000     Zn          0.721654  
         Zn2       1.0000    0.28600   0.31194   0.90922   Biso      1.000     Zn          0.721656  
         Zn3       1.0000    0.78600   0.81194   0.90922   Biso      1.000     Zn          0.721656  
         Zn4       1.0000    0.71400   0.31194   0.59078   Biso      1.000     Zn          0.721655  
         Zn5       1.0000    0.28600   0.68806   0.40922   Biso      1.000     Zn          0.721655  
         Zn6       1.0000    0.78600   0.18806   0.40922   Biso      1.000     Zn          0.721654  
         Zn7       1.0000    0.71400   0.68806   0.09078   Biso      1.000     Zn          0.721654  
         Zn8       1.0000    0.21400   0.18806   0.09078   Biso      1.000     Zn          0.721654 