
##########################################################################
#               Crystallographic Information Format file
#               Produced by PyCifRW module
#
#  This is a CIF file.  CIF has been adopted by the International
#  Union of Crystallography as the standard for data archiving and
#  transmission.
#
#  For information on this file format, follow the CIF links at
#  http://www.iucr.org
##########################################################################

data_image0

_cell_length_a                          39.356
_cell_length_b                          9.332
_cell_length_c                          9.842
_cell_angle_alpha                       90
_cell_angle_beta                        101.864
_cell_angle_gamma                       90
_symmetry_space_group_name_H-M          'P 1'
_symmetry_int_tables_number             1
loop_
  _symmetry_equiv_pos_as_xyz
         'x, y, z' 
loop_
  _atom_site_label
  _atom_site_occupancy
  _atom_site_fract_x
  _atom_site_fract_y
  _atom_site_fract_z
  _atom_site_thermal_displace_type
  _atom_site_B_iso_or_equiv
  _atom_site_type_symbol
  _atom_site_charge
         C1        1.0000    0.90191   0.21110   0.40950   Biso      1.000     C          -0.112463           
         C2        1.0000    0.34760   0.67070   0.48980   Biso      1.000     C          0.623951  
         C3        1.0000    0.49015   0.45300   0.97260   Biso      1.000     C          -0.13609  
         C4        1.0000    0.20815   0.49160   0.83200   Biso      1.000     C          0.427841  
         C5        1.0000    0.17656   0.56060   0.86250   Biso      1.000     C          -0.573197           
         C6        1.0000    0.25108   0.43450   0.74400   Biso      1.000     C          0.421164  
         C7        1.0000    0.27669   0.42770   0.65230   Biso      1.000     C          -0.572934           
         C8        1.0000    0.77669   0.07230   0.15230   Biso      1.000     C          -0.572934           
         C9        1.0000    0.75108   0.06550   0.24400   Biso      1.000     C          0.421164  
         C10       1.0000    0.67656   0.93940   0.36250   Biso      1.000     C          -0.573197           
         C11       1.0000    0.70815   0.00840   0.33200   Biso      1.000     C          0.42784   
         C12       1.0000    0.15240   0.82930   0.51020   Biso      1.000     C          0.62395   
         C13       1.0000    0.38447   0.63540   0.48600   Biso      1.000     C          -0.027728           
         C14       1.0000    0.99015   0.04700   0.47260   Biso      1.000     C          -0.136094           
         C15       1.0000    0.11553   0.86460   0.51400   Biso      1.000     C          -0.027729           
         C16       1.0000    0.93600   0.17620   0.40480   Biso      1.000     C          -0.15674  
         C17       1.0000    0.09809   0.78890   0.59050   Biso      1.000     C          -0.112423           
         C18       1.0000    0.93600   0.99480   0.55430   Biso      1.000     C          -0.157715           
         C19       1.0000    0.90090   0.02390   0.55710   Biso      1.000     C          -0.104433           
         C20       1.0000    0.09910   0.97610   0.44290   Biso      1.000     C          -0.104409           
         C21       1.0000    0.95371   0.92620   0.97890   Biso      1.000     C          0.14188   
         C22       1.0000    0.88447   0.13540   0.48600   Biso      1.000     C          -0.027677           
         C23       1.0000    0.84760   0.17070   0.48980   Biso      1.000     C          0.623946  
         C24       1.0000    0.06400   0.00520   0.44570   Biso      1.000     C          -0.157718           
         C25       1.0000    0.06400   0.82380   0.59520   Biso      1.000     C          -0.156747           
         C26       1.0000    0.95371   0.07380   0.47890   Biso      1.000     C          0.141943  
         C27       1.0000    0.04629   0.92620   0.52110   Biso      1.000     C          0.141932  
         C28       1.0000    0.40191   0.71110   0.40950   Biso      1.000     C          -0.112431           
         C29       1.0000    0.40090   0.52390   0.55710   Biso      1.000     C          -0.104414           
         C30       1.0000    0.70815   0.99160   0.83200   Biso      1.000     C          0.427842  
         C31       1.0000    0.93600   0.82380   0.90480   Biso      1.000     C          -0.156693           
         C32       1.0000    0.67656   0.06060   0.86250   Biso      1.000     C          -0.573197           
         C33       1.0000    0.93600   0.00520   0.05430   Biso      1.000     C          -0.157687           
         C34       1.0000    0.90090   0.97610   0.05710   Biso      1.000     C          -0.104438           
         C35       1.0000    0.90191   0.78890   0.90950   Biso      1.000     C          -0.11247  
         C36       1.0000    0.88447   0.86460   0.98600   Biso      1.000     C          -0.027676           
         C37       1.0000    0.84760   0.82930   0.98980   Biso      1.000     C          0.623946  
         C38       1.0000    0.75108   0.93450   0.74400   Biso      1.000     C          0.421163  
         C39       1.0000    0.77669   0.92770   0.65230   Biso      1.000     C          -0.572934           
         C40       1.0000    0.34760   0.32930   0.98980   Biso      1.000     C          0.623951  
         C41       1.0000    0.45371   0.42620   0.97890   Biso      1.000     C          0.141881  
         C42       1.0000    0.38447   0.36460   0.98600   Biso      1.000     C          -0.027728           
         C43       1.0000    0.27669   0.57230   0.15230   Biso      1.000     C          -0.572934           
         C44       1.0000    0.25108   0.56550   0.24400   Biso      1.000     C          0.421164  
         C45       1.0000    0.40090   0.47610   0.05710   Biso      1.000     C          -0.104414           
         C46       1.0000    0.17656   0.43940   0.36250   Biso      1.000     C          -0.573197           
         C47       1.0000    0.20815   0.50840   0.33200   Biso      1.000     C          0.42784   
         C48       1.0000    0.43600   0.50520   0.05430   Biso      1.000     C          -0.157691           
         C49       1.0000    0.49015   0.54700   0.47260   Biso      1.000     C          -0.136088           
         C50       1.0000    0.45371   0.57380   0.47890   Biso      1.000     C          0.141881  
         C51       1.0000    0.43600   0.67620   0.40480   Biso      1.000     C          -0.156699           
         C52       1.0000    0.43600   0.32380   0.90480   Biso      1.000     C          -0.156699           
         C53       1.0000    0.43600   0.49480   0.55430   Biso      1.000     C          -0.15769  
         C54       1.0000    0.40191   0.28890   0.90950   Biso      1.000     C          -0.112431           
         C55       1.0000    0.00985   0.95300   0.52740   Biso      1.000     C          -0.135972           
         C56       1.0000    0.99015   0.95300   0.97260   Biso      1.000     C          -0.136089           
         C57       1.0000    0.61553   0.63540   0.01400   Biso      1.000     C          -0.027728           
         C58       1.0000    0.65240   0.67070   0.01020   Biso      1.000     C          0.623951  
         C59       1.0000    0.09910   0.02390   0.94290   Biso      1.000     C          -0.104433           
         C60       1.0000    0.65240   0.32930   0.51020   Biso      1.000     C          0.62395   
         C61       1.0000    0.61553   0.36460   0.51400   Biso      1.000     C          -0.027729           
         C62       1.0000    0.59809   0.28890   0.59050   Biso      1.000     C          -0.112423           
         C63       1.0000    0.82344   0.56060   0.63750   Biso      1.000     C          -0.573197           
         C64       1.0000    0.06400   0.99480   0.94570   Biso      1.000     C          -0.157714           
         C65       1.0000    0.59910   0.47610   0.44290   Biso      1.000     C          -0.104409           
         C66       1.0000    0.29185   0.99160   0.66800   Biso      1.000     C          0.427841  
         C67       1.0000    0.56400   0.50520   0.44570   Biso      1.000     C          -0.157718           
         C68       1.0000    0.79185   0.49160   0.66800   Biso      1.000     C          0.427842  
         C69       1.0000    0.22331   0.07230   0.34770   Biso      1.000     C          -0.572934           
         C70       1.0000    0.06400   0.17620   0.09520   Biso      1.000     C          -0.156741           
         C71       1.0000    0.24892   0.06550   0.25600   Biso      1.000     C          0.421163  
         C72       1.0000    0.56400   0.32380   0.59520   Biso      1.000     C          -0.156747           
         C73       1.0000    0.54629   0.42620   0.52110   Biso      1.000     C          0.141932  
         C74       1.0000    0.32344   0.93940   0.13750   Biso      1.000     C          -0.573197           
         C75       1.0000    0.29185   0.00840   0.16800   Biso      1.000     C          0.427842  
         C76       1.0000    0.50985   0.45300   0.52740   Biso      1.000     C          -0.135973           
         C77       1.0000    0.00985   0.04700   0.02740   Biso      1.000     C          -0.135974           
         C78       1.0000    0.09809   0.21110   0.09050   Biso      1.000     C          -0.112462           
         C79       1.0000    0.04629   0.07380   0.02110   Biso      1.000     C          0.141931  
         C80       1.0000    0.11553   0.13540   0.01400   Biso      1.000     C          -0.027677           
         C81       1.0000    0.72331   0.57230   0.34770   Biso      1.000     C          -0.572934           
         C82       1.0000    0.74892   0.56550   0.25600   Biso      1.000     C          0.421164  
         C83       1.0000    0.32344   0.06060   0.63750   Biso      1.000     C          -0.573197           
         C84       1.0000    0.72331   0.42770   0.84770   Biso      1.000     C          -0.572934           
         C85       1.0000    0.74892   0.43450   0.75600   Biso      1.000     C          0.421163  
         C86       1.0000    0.82344   0.43940   0.13750   Biso      1.000     C          -0.573197           
         C87       1.0000    0.79185   0.50840   0.16800   Biso      1.000     C          0.42784   
         C88       1.0000    0.59809   0.71110   0.09050   Biso      1.000     C          -0.11243  
         C89       1.0000    0.54629   0.57380   0.02110   Biso      1.000     C          0.141869  
         C90       1.0000    0.24892   0.93450   0.75600   Biso      1.000     C          0.421164  
         C91       1.0000    0.50985   0.54700   0.02740   Biso      1.000     C          -0.135967           
         C92       1.0000    0.56400   0.49480   0.94570   Biso      1.000     C          -0.15769  
         C93       1.0000    0.59910   0.52390   0.94290   Biso      1.000     C          -0.104413           
         C94       1.0000    0.22331   0.92770   0.84770   Biso      1.000     C          -0.572934           
         C95       1.0000    0.56400   0.67620   0.09520   Biso      1.000     C          -0.1567   
         C96       1.0000    0.15240   0.17070   0.01020   Biso      1.000     C          0.623946  
         H1        1.0000    0.66510   0.99520   0.91350   Biso      1.000     H          0.188404  
         H2        1.0000    0.81700   0.64560   0.58330   Biso      1.000     H          0.188903  
         H3        1.0000    0.73450   0.39230   0.93730   Biso      1.000     H          0.180025  
         H4        1.0000    0.39130   0.21150   0.85830   Biso      1.000     H          0.105167  
         H5        1.0000    0.50040   0.38860   0.58140   Biso      1.000     H          0.099925  
         H6        1.0000    0.79530   0.86470   0.69240   Biso      1.000     H          0.186493  
         H7        1.0000    0.68300   0.14560   0.91670   Biso      1.000     H          0.188903  
         H8        1.0000    0.76550   0.89230   0.56270   Biso      1.000     H          0.180025  
         H9        1.0000    0.83890   0.58570   0.72310   Biso      1.000     H          0.198478  
         H10       1.0000    0.78570   0.02190   0.64260   Biso      1.000     H          0.19892   
         H11       1.0000    0.66110   0.08570   0.77690   Biso      1.000     H          0.198478  
         H12       1.0000    0.83490   0.49520   0.58650   Biso      1.000     H          0.188404  
         H13       1.0000    0.00040   0.88860   0.58140   Biso      1.000     H          0.099925  
         H14       1.0000    0.61090   0.53460   0.39150   Biso      1.000     H          0.106916  
         H15       1.0000    0.44710   0.58130   0.10620   Biso      1.000     H          0.102977  
         H16       1.0000    0.05310   0.77150   0.65450   Biso      1.000     H          0.099576  
         H17       1.0000    0.05290   0.08130   0.39380   Biso      1.000     H          0.102979  
         H18       1.0000    0.31700   0.14560   0.58330   Biso      1.000     H          0.188903  
         H19       1.0000    0.11090   0.03460   0.39150   Biso      1.000     H          0.106916  
         H20       1.0000    0.33890   0.08570   0.72310   Biso      1.000     H          0.198478  
         H21       1.0000    0.33490   0.99520   0.58650   Biso      1.000     H          0.188404  
         H22       1.0000    0.10870   0.71150   0.64170   Biso      1.000     H          0.105166  
         H23       1.0000    0.23450   0.89230   0.93730   Biso      1.000     H          0.180025  
         H24       1.0000    0.21430   0.02190   0.85740   Biso      1.000     H          0.19892   
         H25       1.0000    0.29530   0.36470   0.69240   Biso      1.000     H          0.186493  
         H26       1.0000    0.28570   0.52190   0.64260   Biso      1.000     H          0.19892   
         H27       1.0000    0.26550   0.39230   0.56270   Biso      1.000     H          0.180025  
         H28       1.0000    0.20470   0.86470   0.80760   Biso      1.000     H          0.186493  
         H29       1.0000    0.16510   0.49520   0.91350   Biso      1.000     H          0.188404  
         H30       1.0000    0.16110   0.58570   0.77690   Biso      1.000     H          0.198478  
         H31       1.0000    0.18300   0.64560   0.91670   Biso      1.000     H          0.188903  
         H32       1.0000    0.49960   0.38860   0.91860   Biso      1.000     H          0.099932  
         H33       1.0000    0.60870   0.21150   0.64170   Biso      1.000     H          0.105166  
         H34       1.0000    0.55290   0.58130   0.39380   Biso      1.000     H          0.102979  
         H35       1.0000    0.44690   0.27150   0.84550   Biso      1.000     H          0.099573  
         H36       1.0000    0.55310   0.27150   0.65450   Biso      1.000     H          0.099576  
         H37       1.0000    0.38910   0.53460   0.10850   Biso      1.000     H          0.106916  
         H38       1.0000    0.29530   0.63530   0.19240   Biso      1.000     H          0.186493  
         H39       1.0000    0.70470   0.36470   0.80760   Biso      1.000     H          0.186493  
         H40       1.0000    0.94690   0.77150   0.84550   Biso      1.000     H          0.099573  
         H41       1.0000    0.66510   0.00480   0.41350   Biso      1.000     H          0.188404  
         H42       1.0000    0.66110   0.91430   0.27690   Biso      1.000     H          0.198478  
         H43       1.0000    0.68300   0.85440   0.41670   Biso      1.000     H          0.188903  
         H44       1.0000    0.99960   0.11140   0.41860   Biso      1.000     H          0.099933  
         H45       1.0000    0.94690   0.22850   0.34550   Biso      1.000     H          0.099576  
         H46       1.0000    0.94710   0.91870   0.60620   Biso      1.000     H          0.102979  
         H47       1.0000    0.99960   0.88860   0.91860   Biso      1.000     H          0.099932  
         H48       1.0000    0.89130   0.28850   0.35830   Biso      1.000     H          0.105169  
         H49       1.0000    0.70470   0.63530   0.30760   Biso      1.000     H          0.186493  
         H50       1.0000    0.71430   0.47810   0.35740   Biso      1.000     H          0.19892   
         H51       1.0000    0.73450   0.60770   0.43730   Biso      1.000     H          0.180026  
         H52       1.0000    0.83490   0.50480   0.08650   Biso      1.000     H          0.188404  
         H53       1.0000    0.83890   0.41430   0.22310   Biso      1.000     H          0.198478  
         H54       1.0000    0.81700   0.35440   0.08330   Biso      1.000     H          0.188903  
         H55       1.0000    0.76550   0.10770   0.06270   Biso      1.000     H          0.180026  
         H56       1.0000    0.50040   0.61140   0.08140   Biso      1.000     H          0.099924  
         H57       1.0000    0.55290   0.41870   0.89380   Biso      1.000     H          0.102977  
         H58       1.0000    0.61090   0.46540   0.89150   Biso      1.000     H          0.106917  
         H59       1.0000    0.60870   0.78850   0.14170   Biso      1.000     H          0.105167  
         H60       1.0000    0.20470   0.13530   0.30760   Biso      1.000     H          0.186493  
         H61       1.0000    0.21430   0.97810   0.35740   Biso      1.000     H          0.19892   
         H62       1.0000    0.23450   0.10770   0.43730   Biso      1.000     H          0.180026  
         H63       1.0000    0.33490   0.00480   0.08650   Biso      1.000     H          0.188404  
         H64       1.0000    0.33890   0.91430   0.22310   Biso      1.000     H          0.198478  
         H65       1.0000    0.31700   0.85440   0.08330   Biso      1.000     H          0.188903  
         H66       1.0000    0.00040   0.11140   0.08140   Biso      1.000     H          0.099925  
         H67       1.0000    0.05310   0.22850   0.15450   Biso      1.000     H          0.099576  
         H68       1.0000    0.05290   0.91870   0.89380   Biso      1.000     H          0.102979  
         H69       1.0000    0.11090   0.96540   0.89150   Biso      1.000     H          0.106918  
         H70       1.0000    0.10870   0.28850   0.14170   Biso      1.000     H          0.105169  
         H71       1.0000    0.55310   0.72850   0.15450   Biso      1.000     H          0.099572  
         H72       1.0000    0.78570   0.97810   0.14260   Biso      1.000     H          0.19892   
         H73       1.0000    0.88910   0.96540   0.60850   Biso      1.000     H          0.106918  
         H74       1.0000    0.28570   0.47810   0.14260   Biso      1.000     H          0.19892   
         H75       1.0000    0.94710   0.08130   0.10620   Biso      1.000     H          0.102977  
         H76       1.0000    0.79530   0.13530   0.19240   Biso      1.000     H          0.186493  
         H77       1.0000    0.71430   0.52190   0.85740   Biso      1.000     H          0.19892   
         H78       1.0000    0.89130   0.71150   0.85830   Biso      1.000     H          0.10517   
         H79       1.0000    0.26550   0.60770   0.06270   Biso      1.000     H          0.180026  
         H80       1.0000    0.16510   0.50480   0.41350   Biso      1.000     H          0.188404  
         H81       1.0000    0.16110   0.41430   0.27690   Biso      1.000     H          0.198478  
         H82       1.0000    0.18300   0.35440   0.41670   Biso      1.000     H          0.188903  
         H83       1.0000    0.49960   0.61140   0.41860   Biso      1.000     H          0.099932  
         H84       1.0000    0.44690   0.72850   0.34550   Biso      1.000     H          0.099573  
         H85       1.0000    0.44710   0.41870   0.60620   Biso      1.000     H          0.102977  
         H86       1.0000    0.38910   0.46540   0.60850   Biso      1.000     H          0.106916  
         H87       1.0000    0.88910   0.03460   0.10850   Biso      1.000     H          0.106919  
         H88       1.0000    0.39130   0.78850   0.35830   Biso      1.000     H          0.105166  
         N1        1.0000    0.27571   0.97310   0.27160   Biso      1.000     N          -0.44749  
         N2        1.0000    0.72429   0.02690   0.72840   Biso      1.000     N          -0.44749  
         N3        1.0000    0.72403   0.88450   0.90620   Biso      1.000     N          -0.272322           
         N4        1.0000    0.75168   0.84760   0.84860   Biso      1.000     N          -0.263133           
         N5        1.0000    0.25168   0.65240   0.34860   Biso      1.000     N          -0.263145           
         N6        1.0000    0.25168   0.34760   0.84860   Biso      1.000     N          -0.263145           
         N7        1.0000    0.74832   0.65240   0.15140   Biso      1.000     N          -0.263145           
         N8        1.0000    0.77597   0.61550   0.09380   Biso      1.000     N          -0.272309           
         N9        1.0000    0.77571   0.47310   0.27160   Biso      1.000     N          -0.44749  
         N10       1.0000    0.77571   0.52690   0.77160   Biso      1.000     N          -0.44749  
         N11       1.0000    0.77597   0.38450   0.59380   Biso      1.000     N          -0.272322           
         N12       1.0000    0.74832   0.34760   0.65140   Biso      1.000     N          -0.263132           
         N13       1.0000    0.22403   0.38450   0.90620   Biso      1.000     N          -0.272309           
         N14       1.0000    0.22403   0.61550   0.40620   Biso      1.000     N          -0.272309           
         N15       1.0000    0.22429   0.52690   0.72840   Biso      1.000     N          -0.44749  
         N16       1.0000    0.27597   0.11550   0.09380   Biso      1.000     N          -0.272322           
         N17       1.0000    0.22429   0.47310   0.22840   Biso      1.000     N          -0.44749  
         N18       1.0000    0.24832   0.15240   0.15140   Biso      1.000     N          -0.263132           
         N19       1.0000    0.24832   0.84760   0.65140   Biso      1.000     N          -0.263145           
         N20       1.0000    0.27597   0.88450   0.59380   Biso      1.000     N          -0.272309           
         N21       1.0000    0.27571   0.02690   0.77160   Biso      1.000     N          -0.44749  
         N22       1.0000    0.72429   0.97310   0.22840   Biso      1.000     N          -0.44749  
         N23       1.0000    0.75168   0.15240   0.34860   Biso      1.000     N          -0.263145           
         N24       1.0000    0.72403   0.11550   0.40620   Biso      1.000     N          -0.272309           
         O1        1.0000    0.83134   0.90240   0.04920   Biso      1.000     O          -0.578079           
         O2        1.0000    0.83400   0.72900   0.91770   Biso      1.000     O          -0.590885           
         O3        1.0000    0.16866   0.90240   0.45080   Biso      1.000     O          -0.57808  
         O4        1.0000    0.83134   0.09760   0.54920   Biso      1.000     O          -0.578079           
         O5        1.0000    0.83400   0.27100   0.41770   Biso      1.000     O          -0.590885           
         O6        1.0000    0.16866   0.09760   0.95080   Biso      1.000     O          -0.578079           
         O7        1.0000    0.33400   0.22900   0.91770   Biso      1.000     O          -0.590886           
         O8        1.0000    0.33134   0.40240   0.04920   Biso      1.000     O          -0.578079           
         O9        1.0000    0.16600   0.72900   0.58230   Biso      1.000     O          -0.590886           
         O10       1.0000    0.66600   0.77100   0.08230   Biso      1.000     O          -0.590886           
         O11       1.0000    0.66866   0.40240   0.45080   Biso      1.000     O          -0.57808  
         O12       1.0000    0.66600   0.22900   0.58230   Biso      1.000     O          -0.590886           
         O13       1.0000    0.66866   0.59760   0.95080   Biso      1.000     O          -0.57808  
         O14       1.0000    0.33400   0.77100   0.41770   Biso      1.000     O          -0.590886           
         O15       1.0000    0.16600   0.27100   0.08230   Biso      1.000     O          -0.590885           
         O16       1.0000    0.33134   0.59760   0.54920   Biso      1.000     O          -0.57808  
         Zn1       1.0000    0.28581   0.81089   0.41439   Biso      1.000     Zn          0.722417  
         Zn2       1.0000    0.28581   0.18911   0.91439   Biso      1.000     Zn          0.722418  
         Zn3       1.0000    0.71419   0.81089   0.08561   Biso      1.000     Zn          0.722418  
         Zn4       1.0000    0.71419   0.18911   0.58561   Biso      1.000     Zn          0.722415  
         Zn5       1.0000    0.78581   0.31089   0.41439   Biso      1.000     Zn          0.722418  
         Zn6       1.0000    0.21419   0.68911   0.58561   Biso      1.000     Zn          0.722417  
         Zn7       1.0000    0.78581   0.68911   0.91439   Biso      1.000     Zn          0.722415  
         Zn8       1.0000    0.21419   0.31089   0.08561   Biso      1.000     Zn          0.722415 