
##########################################################################
#               Crystallographic Information Format file
#               Produced by PyCifRW module
#
#  This is a CIF file.  CIF has been adopted by the International
#  Union of Crystallography as the standard for data archiving and
#  transmission.
#
#  For information on this file format, follow the CIF links at
#  http://www.iucr.org
##########################################################################

data_image0

_cell_length_a                          31.6491
_cell_length_b                          14.9143
_cell_length_c                          13.2656
_cell_angle_alpha                       90
_cell_angle_beta                        96.466
_cell_angle_gamma                       90
_symmetry_space_group_name_H-M          'P 1'
_symmetry_int_tables_number             1
loop_
  _symmetry_equiv_pos_as_xyz
         'x, y, z' 
loop_
  _atom_site_label
  _atom_site_occupancy
  _atom_site_fract_x
  _atom_site_fract_y
  _atom_site_fract_z
  _atom_site_thermal_displace_type
  _atom_site_B_iso_or_equiv
  _atom_site_type_symbol
  _atom_site_charge
         C1        1.0000    0.38788   0.76660   0.96910   Biso      1.000     C          0.633498  
         C2        1.0000    0.00261   0.61847   0.38118   Biso      1.000     C          0.071454  
         C3        1.0000    0.99754   0.71105   0.37946   Biso      1.000     C          -0.036787           
         C4        1.0000    0.96021   0.74897   0.40595   Biso      1.000     C          0.036858  
         C5        1.0000    0.92796   0.69430   0.43416   Biso      1.000     C          -0.037311           
         C6        1.0000    0.93305   0.60172   0.43587   Biso      1.000     C          -0.006092           
         C7        1.0000    0.97036   0.56381   0.40939   Biso      1.000     C          -0.035993           
         C8        1.0000    0.04206   0.57736   0.35511   Biso      1.000     C          0.041165  
         C9        1.0000    0.08156   0.61610   0.34233   Biso      1.000     C          -0.020399           
         C10       1.0000    0.24561   0.39980   0.40510   Biso      1.000     C          0.688472  
         C11       1.0000    0.22801   0.66042   0.16284   Biso      1.000     C          0.699421  
         C12       1.0000    0.88788   0.73340   0.46910   Biso      1.000     C          0.629072  
         C13       1.0000    0.64989   0.04128   0.31119   Biso      1.000     C          0.044386  
         C14       1.0000    0.67525   0.97526   0.36106   Biso      1.000     C          0.047419  
         C15       1.0000    0.71824   0.97060   0.34877   Biso      1.000     C          -0.122602           
         C16       1.0000    0.73586   0.03197   0.28661   Biso      1.000     C          0.085125  
         C17       1.0000    0.71049   0.09799   0.23674   Biso      1.000     C          -0.129285           
         C18       1.0000    0.66751   0.10265   0.24903   Biso      1.000     C          0.077471  
         C19       1.0000    0.16751   0.60265   0.24903   Biso      1.000     C          0.075995  
         C20       1.0000    0.50261   0.11847   0.38118   Biso      1.000     C          0.068187  
         C21       1.0000    0.21049   0.59799   0.23674   Biso      1.000     C          -0.12903  
         C22       1.0000    0.21824   0.47060   0.34877   Biso      1.000     C          -0.12255  
         C23       1.0000    0.71824   0.02940   0.84877   Biso      1.000     C          -0.122787           
         C24       1.0000    0.73586   0.96803   0.78661   Biso      1.000     C          0.085007  
         C25       1.0000    0.71049   0.90201   0.73674   Biso      1.000     C          -0.129155           
         C26       1.0000    0.66751   0.89735   0.74903   Biso      1.000     C          0.077541  
         C27       1.0000    0.50261   0.88153   0.88118   Biso      1.000     C          0.068179  
         C28       1.0000    0.49754   0.78895   0.87946   Biso      1.000     C          -0.061678           
         C29       1.0000    0.46021   0.75103   0.90595   Biso      1.000     C          0.019486  
         C30       1.0000    0.42796   0.80570   0.93416   Biso      1.000     C          -0.047251           
         C31       1.0000    0.43305   0.89828   0.93587   Biso      1.000     C          0.019224  
         C32       1.0000    0.47036   0.93619   0.90939   Biso      1.000     C          -0.012658           
         C33       1.0000    0.54206   0.92264   0.85511   Biso      1.000     C          0.04348   
         C34       1.0000    0.58156   0.88390   0.84233   Biso      1.000     C          -0.020788           
         C35       1.0000    0.74561   0.10020   0.90510   Biso      1.000     C          0.688773  
         C36       1.0000    0.72801   0.83958   0.66284   Biso      1.000     C          0.699564  
         C37       1.0000    0.27199   0.16042   0.33716   Biso      1.000     C          0.699484  
         C38       1.0000    0.14989   0.54128   0.31119   Biso      1.000     C          0.044166  
         C39       1.0000    0.17525   0.47526   0.36106   Biso      1.000     C          0.04657   
         C40       1.0000    0.23586   0.53197   0.28661   Biso      1.000     C          0.085328  
         C41       1.0000    0.49754   0.21105   0.37946   Biso      1.000     C          -0.061705           
         C42       1.0000    0.46021   0.24897   0.40595   Biso      1.000     C          0.019451  
         C43       1.0000    0.42796   0.19430   0.43416   Biso      1.000     C          -0.047259           
         C44       1.0000    0.77199   0.66042   0.33716   Biso      1.000     C          0.703457  
         C45       1.0000    0.11212   0.73340   0.03090   Biso      1.000     C          0.633426  
         C46       1.0000    0.35011   0.04128   0.18881   Biso      1.000     C          0.044288  
         C47       1.0000    0.32475   0.97526   0.13894   Biso      1.000     C          0.046803  
         C48       1.0000    0.28176   0.97060   0.15123   Biso      1.000     C          -0.122645           
         C49       1.0000    0.26414   0.03197   0.21339   Biso      1.000     C          0.085066  
         C50       1.0000    0.28951   0.09799   0.26326   Biso      1.000     C          -0.129144           
         C51       1.0000    0.33249   0.10265   0.25097   Biso      1.000     C          0.076145  
         C52       1.0000    0.49739   0.11847   0.11882   Biso      1.000     C          0.070939  
         C53       1.0000    0.50246   0.21105   0.12054   Biso      1.000     C          -0.037618           
         C54       1.0000    0.53979   0.24897   0.09405   Biso      1.000     C          0.03671   
         C55       1.0000    0.57204   0.19430   0.06584   Biso      1.000     C          -0.038849           
         C56       1.0000    0.56695   0.10172   0.06413   Biso      1.000     C          -0.009164           
         C57       1.0000    0.52964   0.06381   0.09061   Biso      1.000     C          -0.036105           
         C58       1.0000    0.45794   0.07736   0.14489   Biso      1.000     C          0.040823  
         C59       1.0000    0.41844   0.11610   0.15767   Biso      1.000     C          -0.021103           
         C60       1.0000    0.25439   0.89980   0.09490   Biso      1.000     C          0.68852   
         C61       1.0000    0.75439   0.39980   0.09490   Biso      1.000     C          0.687059  
         C62       1.0000    0.91844   0.61610   0.15767   Biso      1.000     C          -0.018027           
         C63       1.0000    0.95794   0.57736   0.14489   Biso      1.000     C          0.04193   
         C64       1.0000    0.02964   0.56381   0.09061   Biso      1.000     C          -0.013474           
         C65       1.0000    0.43305   0.10172   0.43587   Biso      1.000     C          0.019206  
         C66       1.0000    0.47036   0.06381   0.40939   Biso      1.000     C          -0.012668           
         C67       1.0000    0.54206   0.07736   0.35511   Biso      1.000     C          0.043436  
         C68       1.0000    0.58156   0.11610   0.34233   Biso      1.000     C          -0.020843           
         C69       1.0000    0.74561   0.89980   0.40510   Biso      1.000     C          0.688615  
         C70       1.0000    0.72801   0.16042   0.16284   Biso      1.000     C          0.699761  
         C71       1.0000    0.38788   0.23340   0.46910   Biso      1.000     C          0.633496  
         C72       1.0000    0.85011   0.54128   0.18881   Biso      1.000     C          0.043561  
         C73       1.0000    0.67525   0.02474   0.86106   Biso      1.000     C          0.047389  
         C74       1.0000    0.82475   0.47526   0.13894   Biso      1.000     C          0.067243  
         C75       1.0000    0.76414   0.53197   0.21339   Biso      1.000     C          0.050635  
         C76       1.0000    0.78951   0.59799   0.26326   Biso      1.000     C          -0.112321           
         C77       1.0000    0.83249   0.60265   0.25097   Biso      1.000     C          0.049344  
         C78       1.0000    0.99739   0.61847   0.11882   Biso      1.000     C          0.06887   
         C79       1.0000    0.00246   0.71105   0.12054   Biso      1.000     C          -0.061972           
         C80       1.0000    0.03979   0.74897   0.09405   Biso      1.000     C          0.01894   
         C81       1.0000    0.07204   0.69430   0.06584   Biso      1.000     C          -0.047433           
         C82       1.0000    0.06695   0.60172   0.06413   Biso      1.000     C          0.018739  
         C83       1.0000    0.78176   0.47060   0.15123   Biso      1.000     C          -0.118535           
         C84       1.0000    0.64989   0.95872   0.81119   Biso      1.000     C          0.044474  
         C85       1.0000    0.61212   0.23340   0.03090   Biso      1.000     C          0.628951  
         C86       1.0000    0.50246   0.78895   0.62054   Biso      1.000     C          -0.037595           
         C87       1.0000    0.21049   0.40201   0.73674   Biso      1.000     C          -0.129053           
         C88       1.0000    0.23586   0.46803   0.78661   Biso      1.000     C          0.085449  
         C89       1.0000    0.21824   0.52940   0.84877   Biso      1.000     C          -0.122539           
         C90       1.0000    0.17525   0.52474   0.86106   Biso      1.000     C          0.046887  
         C91       1.0000    0.14989   0.45872   0.81119   Biso      1.000     C          0.044119  
         C92       1.0000    0.76414   0.46803   0.71339   Biso      1.000     C          0.085897  
         C93       1.0000    0.78951   0.40201   0.76326   Biso      1.000     C          -0.12941  
         C94       1.0000    0.83249   0.39735   0.75097   Biso      1.000     C          0.076121  
         C95       1.0000    0.99739   0.38153   0.61882   Biso      1.000     C          0.068184  
         C96       1.0000    0.00246   0.28895   0.62054   Biso      1.000     C          -0.062104           
         C97       1.0000    0.03979   0.25103   0.59405   Biso      1.000     C          0.019568  
         C98       1.0000    0.11212   0.26660   0.53090   Biso      1.000     C          0.633415  
         C99       1.0000    0.28951   0.90201   0.76326   Biso      1.000     C          -0.129131           
         C100      1.0000    0.61212   0.76660   0.53090   Biso      1.000     C          0.629022  
         C101      1.0000    0.27199   0.83958   0.83716   Biso      1.000     C          0.699466  
         C102      1.0000    0.25439   0.10020   0.59490   Biso      1.000     C          0.688539  
         C103      1.0000    0.41844   0.88390   0.65767   Biso      1.000     C          -0.021083           
         C104      1.0000    0.33249   0.89735   0.75097   Biso      1.000     C          0.076157  
         C105      1.0000    0.49739   0.88153   0.61882   Biso      1.000     C          0.070955  
         C106      1.0000    0.02964   0.43619   0.59061   Biso      1.000     C          -0.012819           
         C107      1.0000    0.53979   0.75103   0.59405   Biso      1.000     C          0.036608  
         C108      1.0000    0.57204   0.80570   0.56584   Biso      1.000     C          -0.038846           
         C109      1.0000    0.07204   0.30570   0.56584   Biso      1.000     C          -0.047169           
         C110      1.0000    0.06695   0.39828   0.56413   Biso      1.000     C          0.019258  
         C111      1.0000    0.45794   0.92264   0.64489   Biso      1.000     C          0.040821  
         C112      1.0000    0.16751   0.39735   0.74903   Biso      1.000     C          0.075981  
         C113      1.0000    0.56695   0.89828   0.56413   Biso      1.000     C          -0.009158           
         C114      1.0000    0.78176   0.52940   0.65123   Biso      1.000     C          -0.122372           
         C115      1.0000    0.85011   0.45872   0.68881   Biso      1.000     C          0.044464  
         C116      1.0000    0.77199   0.33958   0.83716   Biso      1.000     C          0.69961   
         C117      1.0000    0.75439   0.60020   0.59490   Biso      1.000     C          0.688583  
         C118      1.0000    0.91844   0.38390   0.65767   Biso      1.000     C          -0.02114  
         C119      1.0000    0.95794   0.42264   0.64489   Biso      1.000     C          0.043434  
         C120      1.0000    0.88788   0.26660   0.96910   Biso      1.000     C          0.628649  
         C121      1.0000    0.22801   0.33958   0.66284   Biso      1.000     C          0.699439  
         C122      1.0000    0.24561   0.60020   0.90510   Biso      1.000     C          0.68846   
         C123      1.0000    0.08156   0.38390   0.84233   Biso      1.000     C          -0.02043  
         C124      1.0000    0.04206   0.42264   0.85511   Biso      1.000     C          0.040539  
         C125      1.0000    0.82475   0.52474   0.63894   Biso      1.000     C          0.048008  
         C126      1.0000    0.97036   0.43619   0.90939   Biso      1.000     C          -0.033959           
         C127      1.0000    0.52964   0.93619   0.59061   Biso      1.000     C          -0.036112           
         C128      1.0000    0.96021   0.25103   0.90595   Biso      1.000     C          0.036453  
         C129      1.0000    0.35011   0.95872   0.68881   Biso      1.000     C          0.044289  
         C130      1.0000    0.26414   0.96803   0.71339   Biso      1.000     C          0.085063  
         C131      1.0000    0.28176   0.02940   0.65123   Biso      1.000     C          -0.122655           
         C132      1.0000    0.32475   0.02474   0.63894   Biso      1.000     C          0.046802  
         C133      1.0000    0.93305   0.39828   0.93587   Biso      1.000     C          -0.009273           
         C134      1.0000    0.92796   0.30570   0.93416   Biso      1.000     C          -0.03998  
         C135      1.0000    0.99754   0.28895   0.87946   Biso      1.000     C          -0.036895           
         C136      1.0000    0.00261   0.38153   0.88118   Biso      1.000     C          0.071129  
         N1        1.0000    0.54451   0.98814   0.33747   Biso      1.000     N          -0.140101           
         N2        1.0000    0.95549   0.51186   0.66253   Biso      1.000     N          -0.140303           
         N3        1.0000    0.58259   0.96669   0.31866   Biso      1.000     N          -0.07222  
         N4        1.0000    0.89466   0.54358   0.17705   Biso      1.000     N          0.096291  
         N5        1.0000    0.91741   0.46669   0.18134   Biso      1.000     N          -0.07366  
         N6        1.0000    0.95549   0.48814   0.16253   Biso      1.000     N          -0.142254           
         N7        1.0000    0.89466   0.45642   0.67705   Biso      1.000     N          0.097813  
         N8        1.0000    0.91741   0.53331   0.68134   Biso      1.000     N          -0.072109           
         N9        1.0000    0.60534   0.04358   0.32295   Biso      1.000     N          0.097726  
         N10       1.0000    0.08259   0.46669   0.31866   Biso      1.000     N          -0.073336           
         N11       1.0000    0.41741   0.03331   0.68134   Biso      1.000     N          -0.073979           
         N12       1.0000    0.45549   0.98814   0.16253   Biso      1.000     N          -0.134876           
         N13       1.0000    0.41741   0.96669   0.18134   Biso      1.000     N          -0.073951           
         N14       1.0000    0.04451   0.51186   0.83747   Biso      1.000     N          -0.134679           
         N15       1.0000    0.08259   0.53331   0.81866   Biso      1.000     N          -0.073409           
         N16       1.0000    0.10534   0.45642   0.82295   Biso      1.000     N          0.096793  
         N17       1.0000    0.60534   0.95642   0.82295   Biso      1.000     N          0.097697  
         N18       1.0000    0.58259   0.03331   0.81866   Biso      1.000     N          -0.072344           
         N19       1.0000    0.54451   0.01186   0.83747   Biso      1.000     N          -0.140035           
         N20       1.0000    0.39466   0.95642   0.67705   Biso      1.000     N          0.096684  
         N21       1.0000    0.39466   0.04358   0.17705   Biso      1.000     N          0.096675  
         N22       1.0000    0.10534   0.54358   0.32295   Biso      1.000     N          0.096786  
         N23       1.0000    0.04451   0.48814   0.33747   Biso      1.000     N          -0.134551           
         N24       1.0000    0.45549   0.01186   0.66253   Biso      1.000     N          -0.134854           
         O1        1.0000    0.77052   0.66720   0.56020   Biso      1.000     O          -0.737855           
         O2        1.0000    0.73482   0.35490   0.85690   Biso      1.000     O          -0.705312           
         O3        1.0000    0.21508   0.91460   0.08300   Biso      1.000     O          -0.61731  
         O4        1.0000    0.27052   0.83280   0.06020   Biso      1.000     O          -0.737442           
         O5        1.0000    0.23482   0.14510   0.35690   Biso      1.000     O          -0.706285           
         O6        1.0000    0.29555   0.22390   0.37120   Biso      1.000     O          -0.620157           
         O7        1.0000    0.63583   0.18290   0.98580   Biso      1.000     O          -0.689113           
         O8        1.0000    0.62167   0.31170   0.04480   Biso      1.000     O          -0.634099           
         O9        1.0000    0.79555   0.27610   0.87120   Biso      1.000     O          -0.621016           
         O10       1.0000    0.13583   0.31710   0.48580   Biso      1.000     O          -0.694822           
         O11       1.0000    0.12167   0.18830   0.54480   Biso      1.000     O          -0.630022           
         O12       1.0000    0.71508   0.58540   0.58300   Biso      1.000     O          -0.616913           
         O13       1.0000    0.62167   0.68830   0.54480   Biso      1.000     O          -0.634606           
         O14       1.0000    0.76518   0.85490   0.64310   Biso      1.000     O          -0.706263           
         O15       1.0000    0.70445   0.22390   0.12880   Biso      1.000     O          -0.61898  
         O16       1.0000    0.37833   0.31170   0.45520   Biso      1.000     O          -0.630131           
         O17       1.0000    0.63583   0.81710   0.48580   Biso      1.000     O          -0.688863           
         O18       1.0000    0.36417   0.81710   0.01420   Biso      1.000     O          -0.694869           
         O19       1.0000    0.87833   0.18830   0.95520   Biso      1.000     O          -0.629207           
         O20       1.0000    0.86417   0.31710   0.01420   Biso      1.000     O          -0.684457           
         O21       1.0000    0.20445   0.27610   0.62880   Biso      1.000     O          -0.620174           
         O22       1.0000    0.36417   0.18290   0.51420   Biso      1.000     O          -0.694878           
         O23       1.0000    0.26518   0.35490   0.64310   Biso      1.000     O          -0.70604  
         O24       1.0000    0.28492   0.58540   0.91700   Biso      1.000     O          -0.61714  
         O25       1.0000    0.28492   0.41460   0.41700   Biso      1.000     O          -0.617138           
         O26       1.0000    0.22948   0.33280   0.43980   Biso      1.000     O          -0.737495           
         O27       1.0000    0.26518   0.64510   0.14310   Biso      1.000     O          -0.706111           
         O28       1.0000    0.20445   0.72390   0.12880   Biso      1.000     O          -0.620077           
         O29       1.0000    0.86417   0.68290   0.51420   Biso      1.000     O          -0.688715           
         O30       1.0000    0.22948   0.66720   0.93980   Biso      1.000     O          -0.7374   
         O31       1.0000    0.87833   0.81170   0.45520   Biso      1.000     O          -0.63426  
         O32       1.0000    0.37833   0.68830   0.95520   Biso      1.000     O          -0.630133           
         O33       1.0000    0.78492   0.08540   0.91700   Biso      1.000     O          -0.617693           
         O34       1.0000    0.29555   0.77610   0.87120   Biso      1.000     O          -0.620172           
         O35       1.0000    0.23482   0.85490   0.85690   Biso      1.000     O          -0.706252           
         O36       1.0000    0.27052   0.16720   0.56020   Biso      1.000     O          -0.737437           
         O37       1.0000    0.71508   0.41460   0.08300   Biso      1.000     O          -0.613644           
         O38       1.0000    0.77052   0.33280   0.06020   Biso      1.000     O          -0.740008           
         O39       1.0000    0.73482   0.64510   0.35690   Biso      1.000     O          -0.705174           
         O40       1.0000    0.76518   0.14510   0.14310   Biso      1.000     O          -0.706599           
         O41       1.0000    0.79555   0.72390   0.37120   Biso      1.000     O          -0.621776           
         O42       1.0000    0.12167   0.81170   0.04480   Biso      1.000     O          -0.630202           
         O43       1.0000    0.72948   0.16720   0.93980   Biso      1.000     O          -0.737409           
         O44       1.0000    0.21508   0.08540   0.58300   Biso      1.000     O          -0.617345           
         O45       1.0000    0.70445   0.77610   0.62880   Biso      1.000     O          -0.619834           
         O46       1.0000    0.78492   0.91460   0.41700   Biso      1.000     O          -0.617341           
         O47       1.0000    0.72948   0.83280   0.43980   Biso      1.000     O          -0.737811           
         O48       1.0000    0.13583   0.68290   0.98580   Biso      1.000     O          -0.69507  
         Tb1       1.0000    0.68948   0.70545   0.46936   Biso      1.000     Tb          2.091608  
         Tb2       1.0000    0.31052   0.29455   0.53064   Biso      1.000     Tb          2.091491  
         Tb3       1.0000    0.81052   0.79455   0.53064   Biso      1.000     Tb          2.091322  
         Tb4       1.0000    0.81052   0.20545   0.03064   Biso      1.000     Tb          2.091673  
         Tb5       1.0000    0.68948   0.29455   0.96936   Biso      1.000     Tb          2.091683  
         Tb6       1.0000    0.18948   0.79455   0.96936   Biso      1.000     Tb          2.091425  
         Tb7       1.0000    0.31052   0.70545   0.03064   Biso      1.000     Tb          2.091508  
         Tb8       1.0000    0.18948   0.20545   0.46936   Biso      1.000     Tb          2.091526 