
##########################################################################
#               Crystallographic Information Format file
#               Produced by PyCifRW module
#
#  This is a CIF file.  CIF has been adopted by the International
#  Union of Crystallography as the standard for data archiving and
#  transmission.
#
#  For information on this file format, follow the CIF links at
#  http://www.iucr.org
##########################################################################

data_image0

_cell_length_a                          31.81
_cell_length_b                          14.993
_cell_length_c                          13.22
_cell_angle_alpha                       90
_cell_angle_beta                        96.01
_cell_angle_gamma                       90
_symmetry_space_group_name_H-M          'P 1'
_symmetry_int_tables_number             1
loop_
  _symmetry_equiv_pos_as_xyz
         'x, y, z' 
loop_
  _atom_site_label
  _atom_site_occupancy
  _atom_site_fract_x
  _atom_site_fract_y
  _atom_site_fract_z
  _atom_site_thermal_displace_type
  _atom_site_B_iso_or_equiv
  _atom_site_type_symbol
  _atom_site_charge
         C1        1.0000    0.21056   0.39914   0.74211   Biso      1.000     C          -0.120645           
         C2        1.0000    0.67523   0.97628   0.36401   Biso      1.000     C          0.094576  
         C3        1.0000    0.71820   0.97337   0.35325   Biso      1.000     C          -0.11545  
         C4        1.0000    0.73587   0.03566   0.29230   Biso      1.000     C          0.142488  
         C5        1.0000    0.78944   0.60086   0.25789   Biso      1.000     C          -0.120625           
         C6        1.0000    0.76413   0.53566   0.20770   Biso      1.000     C          0.136949  
         C7        1.0000    0.78180   0.47337   0.14675   Biso      1.000     C          -0.11669  
         C8        1.0000    0.82477   0.47628   0.13599   Biso      1.000     C          0.093529  
         C9        1.0000    0.85009   0.54147   0.18618   Biso      1.000     C          0.069025  
         C10       1.0000    0.83242   0.60376   0.24712   Biso      1.000     C          0.08001   
         C11       1.0000    0.00247   0.70961   0.12079   Biso      1.000     C          -0.07348  
         C12       1.0000    0.99737   0.61595   0.12043   Biso      1.000     C          0.058856  
         C13       1.0000    0.03005   0.56144   0.09430   Biso      1.000     C          0.015538  
         C14       1.0000    0.06725   0.60030   0.06771   Biso      1.000     C          0.035287  
         C15       1.0000    0.07190   0.69140   0.06760   Biso      1.000     C          -0.057699           
         C16       1.0000    0.04006   0.74549   0.09417   Biso      1.000     C          0.043367  
         C17       1.0000    0.64991   0.04147   0.31382   Biso      1.000     C          0.070973  
         C18       1.0000    0.66758   0.10376   0.25288   Biso      1.000     C          0.079645  
         C19       1.0000    0.49753   0.20961   0.37921   Biso      1.000     C          -0.029978           
         C20       1.0000    0.61159   0.76960   0.53340   Biso      1.000     C          0.568115  
         C21       1.0000    0.50263   0.11595   0.37957   Biso      1.000     C          0.073919  
         C22       1.0000    0.28944   0.89914   0.75789   Biso      1.000     C          -0.12112  
         C23       1.0000    0.26413   0.96434   0.70770   Biso      1.000     C          0.140319  
         C24       1.0000    0.28180   0.02663   0.64675   Biso      1.000     C          -0.115657           
         C25       1.0000    0.32477   0.02372   0.63599   Biso      1.000     C          0.091347  
         C26       1.0000    0.35009   0.95853   0.68618   Biso      1.000     C          0.070466  
         C27       1.0000    0.33242   0.89624   0.74712   Biso      1.000     C          0.078304  
         C28       1.0000    0.95927   0.57740   0.14458   Biso      1.000     C          0.06113   
         C29       1.0000    0.50247   0.79039   0.62079   Biso      1.000     C          -0.043623           
         C30       1.0000    0.56725   0.89970   0.56771   Biso      1.000     C          0.022106  
         C31       1.0000    0.57190   0.80860   0.56760   Biso      1.000     C          -0.056742           
         C32       1.0000    0.54006   0.75451   0.59417   Biso      1.000     C          0.040667  
         C33       1.0000    0.45927   0.92260   0.64458   Biso      1.000     C          0.056199  
         C34       1.0000    0.41877   0.88602   0.65498   Biso      1.000     C          -0.00434  
         C35       1.0000    0.27095   0.83500   0.83020   Biso      1.000     C          0.637235  
         C36       1.0000    0.25377   0.09630   0.58980   Biso      1.000     C          0.629182  
         C37       1.0000    0.53005   0.93856   0.59430   Biso      1.000     C          0.005119  
         C38       1.0000    0.91877   0.61398   0.15498   Biso      1.000     C          -0.002428           
         C39       1.0000    0.77095   0.66500   0.33020   Biso      1.000     C          0.636938  
         C40       1.0000    0.75377   0.40370   0.08980   Biso      1.000     C          0.6282    
         C41       1.0000    0.24623   0.40370   0.41020   Biso      1.000     C          0.628842  
         C42       1.0000    0.22905   0.66500   0.16980   Biso      1.000     C          0.637244  
         C43       1.0000    0.21056   0.60086   0.24211   Biso      1.000     C          -0.120646           
         C44       1.0000    0.23587   0.53566   0.29230   Biso      1.000     C          0.135926  
         C45       1.0000    0.21820   0.47337   0.35325   Biso      1.000     C          -0.116701           
         C46       1.0000    0.17523   0.47628   0.36401   Biso      1.000     C          0.092947  
         C47       1.0000    0.14991   0.54147   0.31382   Biso      1.000     C          0.068546  
         C48       1.0000    0.88841   0.73040   0.46660   Biso      1.000     C          0.575407  
         C49       1.0000    0.16758   0.60376   0.25288   Biso      1.000     C          0.080285  
         C50       1.0000    0.00263   0.61595   0.37957   Biso      1.000     C          0.059121  
         C51       1.0000    0.96995   0.56144   0.40570   Biso      1.000     C          0.015614  
         C52       1.0000    0.93275   0.60030   0.43229   Biso      1.000     C          0.035378  
         C53       1.0000    0.92810   0.69140   0.43240   Biso      1.000     C          -0.057641           
         C54       1.0000    0.95994   0.74549   0.40583   Biso      1.000     C          0.042545  
         C55       1.0000    0.04073   0.57740   0.35542   Biso      1.000     C          0.061054  
         C56       1.0000    0.08123   0.61398   0.34502   Biso      1.000     C          -0.001826           
         C57       1.0000    0.99753   0.70961   0.37921   Biso      1.000     C          -0.074179           
         C58       1.0000    0.46995   0.06144   0.40570   Biso      1.000     C          -0.031198           
         C59       1.0000    0.61159   0.23040   0.03340   Biso      1.000     C          0.568118  
         C60       1.0000    0.27095   0.16500   0.33020   Biso      1.000     C          0.637236  
         C61       1.0000    0.11159   0.73040   0.03340   Biso      1.000     C          0.575362  
         C62       1.0000    0.71056   0.10086   0.24211   Biso      1.000     C          -0.120315           
         C63       1.0000    0.28944   0.10086   0.25789   Biso      1.000     C          -0.121119           
         C64       1.0000    0.26413   0.03566   0.20770   Biso      1.000     C          0.140322  
         C65       1.0000    0.28180   0.97337   0.14675   Biso      1.000     C          -0.115658           
         C66       1.0000    0.32477   0.97628   0.13599   Biso      1.000     C          0.091349  
         C67       1.0000    0.35009   0.04147   0.18618   Biso      1.000     C          0.070468  
         C68       1.0000    0.25377   0.90370   0.08980   Biso      1.000     C          0.629182  
         C69       1.0000    0.33242   0.10376   0.24712   Biso      1.000     C          0.078304  
         C70       1.0000    0.49737   0.11595   0.12043   Biso      1.000     C          0.055166  
         C71       1.0000    0.53005   0.06144   0.09430   Biso      1.000     C          0.005118  
         C72       1.0000    0.56725   0.10030   0.06771   Biso      1.000     C          0.022104  
         C73       1.0000    0.57190   0.19140   0.06760   Biso      1.000     C          -0.056744           
         C74       1.0000    0.54006   0.24549   0.09417   Biso      1.000     C          0.040667  
         C75       1.0000    0.45927   0.07740   0.14458   Biso      1.000     C          0.056199  
         C76       1.0000    0.41877   0.11398   0.15498   Biso      1.000     C          -0.004341           
         C77       1.0000    0.50247   0.20961   0.12079   Biso      1.000     C          -0.043626           
         C78       1.0000    0.43275   0.10030   0.43229   Biso      1.000     C          0.002889  
         C79       1.0000    0.49737   0.88405   0.62043   Biso      1.000     C          0.055167  
         C80       1.0000    0.45994   0.24549   0.40583   Biso      1.000     C          0.054609  
         C81       1.0000    0.64991   0.95853   0.81382   Biso      1.000     C          0.070982  
         C82       1.0000    0.04073   0.42260   0.85542   Biso      1.000     C          0.061054  
         C83       1.0000    0.72905   0.16500   0.16980   Biso      1.000     C          0.636226  
         C84       1.0000    0.74623   0.90370   0.41020   Biso      1.000     C          0.628145  
         C85       1.0000    0.08123   0.38602   0.84502   Biso      1.000     C          -0.00183  
         C86       1.0000    0.38841   0.76960   0.96660   Biso      1.000     C          0.571096  
         C87       1.0000    0.74623   0.09630   0.91020   Biso      1.000     C          0.628143  
         C88       1.0000    0.72905   0.83500   0.66980   Biso      1.000     C          0.636225  
         C89       1.0000    0.22905   0.33500   0.66980   Biso      1.000     C          0.637243  
         C90       1.0000    0.58123   0.88602   0.84502   Biso      1.000     C          -0.008385           
         C91       1.0000    0.54073   0.92260   0.85542   Biso      1.000     C          0.054933  
         C92       1.0000    0.24623   0.59630   0.91020   Biso      1.000     C          0.628841  
         C93       1.0000    0.88841   0.26960   0.96660   Biso      1.000     C          0.575412  
         C94       1.0000    0.45994   0.75451   0.90583   Biso      1.000     C          0.054609  
         C95       1.0000    0.42810   0.80860   0.93240   Biso      1.000     C          -0.043339           
         C96       1.0000    0.43275   0.89970   0.93229   Biso      1.000     C          0.00289   
         C97       1.0000    0.42810   0.19140   0.43240   Biso      1.000     C          -0.043341           
         C98       1.0000    0.46995   0.93856   0.90570   Biso      1.000     C          -0.031202           
         C99       1.0000    0.38841   0.23040   0.46660   Biso      1.000     C          0.571095  
         C100      1.0000    0.71056   0.89914   0.74211   Biso      1.000     C          -0.120312           
         C101      1.0000    0.73587   0.96434   0.79230   Biso      1.000     C          0.142502  
         C102      1.0000    0.71820   0.02663   0.85325   Biso      1.000     C          -0.115446           
         C103      1.0000    0.50263   0.88405   0.87957   Biso      1.000     C          0.073918  
         C104      1.0000    0.49753   0.79039   0.87921   Biso      1.000     C          -0.029981           
         C105      1.0000    0.66758   0.89624   0.75288   Biso      1.000     C          0.079643  
         C106      1.0000    0.92810   0.30860   0.93240   Biso      1.000     C          -0.057645           
         C107      1.0000    0.58123   0.11398   0.34502   Biso      1.000     C          -0.008387           
         C108      1.0000    0.95994   0.25451   0.90583   Biso      1.000     C          0.042547  
         C109      1.0000    0.76413   0.46434   0.70770   Biso      1.000     C          0.136929  
         C110      1.0000    0.54073   0.07740   0.35542   Biso      1.000     C          0.05493   
         C111      1.0000    0.23587   0.46434   0.79230   Biso      1.000     C          0.135927  
         C112      1.0000    0.11159   0.26960   0.53340   Biso      1.000     C          0.575361  
         C113      1.0000    0.75377   0.59630   0.58980   Biso      1.000     C          0.628204  
         C114      1.0000    0.77095   0.33500   0.83020   Biso      1.000     C          0.636939  
         C115      1.0000    0.21820   0.52663   0.85325   Biso      1.000     C          -0.1167   
         C116      1.0000    0.17523   0.52372   0.86401   Biso      1.000     C          0.09295   
         C117      1.0000    0.14991   0.45853   0.81382   Biso      1.000     C          0.068548  
         C118      1.0000    0.16758   0.39624   0.75288   Biso      1.000     C          0.080286  
         C119      1.0000    0.91877   0.38602   0.65498   Biso      1.000     C          -0.002425           
         C120      1.0000    0.95927   0.42260   0.64458   Biso      1.000     C          0.061126  
         C121      1.0000    0.04006   0.25451   0.59417   Biso      1.000     C          0.043366  
         C122      1.0000    0.78944   0.39914   0.75789   Biso      1.000     C          -0.120629           
         C123      1.0000    0.07190   0.30860   0.56760   Biso      1.000     C          -0.057697           
         C124      1.0000    0.03005   0.43856   0.59430   Biso      1.000     C          0.01554   
         C125      1.0000    0.78180   0.52663   0.64675   Biso      1.000     C          -0.116691           
         C126      1.0000    0.82477   0.52372   0.63599   Biso      1.000     C          0.093505  
         C127      1.0000    0.85009   0.45853   0.68618   Biso      1.000     C          0.069015  
         C128      1.0000    0.93275   0.39970   0.93229   Biso      1.000     C          0.035386  
         C129      1.0000    0.83242   0.39624   0.74712   Biso      1.000     C          0.080007  
         C130      1.0000    0.00247   0.29039   0.62079   Biso      1.000     C          -0.073477           
         C131      1.0000    0.06725   0.39970   0.56771   Biso      1.000     C          0.035288  
         C132      1.0000    0.99737   0.38405   0.62043   Biso      1.000     C          0.058858  
         C133      1.0000    0.96995   0.43856   0.90570   Biso      1.000     C          0.015618  
         C134      1.0000    0.00263   0.38405   0.87957   Biso      1.000     C          0.059119  
         C135      1.0000    0.99753   0.29039   0.87921   Biso      1.000     C          -0.074187           
         C136      1.0000    0.67523   0.02372   0.86401   Biso      1.000     C          0.094588  
         Eu1       1.0000    0.18936   0.79326   0.97045   Biso      1.000     Eu          1.417613  
         Eu2       1.0000    0.31064   0.29326   0.52955   Biso      1.000     Eu          1.413812  
         Eu3       1.0000    0.18936   0.20674   0.47045   Biso      1.000     Eu          1.417615  
         Eu4       1.0000    0.68936   0.29326   0.97045   Biso      1.000     Eu          1.412685  
         Eu5       1.0000    0.81064   0.79326   0.52955   Biso      1.000     Eu          1.417598  
         Eu6       1.0000    0.81064   0.20674   0.02955   Biso      1.000     Eu          1.417598  
         Eu7       1.0000    0.68936   0.70674   0.47045   Biso      1.000     Eu          1.412683  
         Eu8       1.0000    0.31064   0.70674   0.02955   Biso      1.000     Eu          1.413812  
         N1        1.0000    0.04282   0.51603   0.83905   Biso      1.000     N          -0.146211           
         N2        1.0000    0.10834   0.45683   0.82223   Biso      1.000     N          0.071951  
         N3        1.0000    0.54282   0.98397   0.33905   Biso      1.000     N          -0.137417           
         N4        1.0000    0.58460   0.96281   0.31854   Biso      1.000     N          -0.069567           
         N5        1.0000    0.60834   0.04317   0.32223   Biso      1.000     N          0.073617  
         N6        1.0000    0.45718   0.01603   0.66095   Biso      1.000     N          -0.142356           
         N7        1.0000    0.41540   0.03719   0.68146   Biso      1.000     N          -0.07014  
         N8        1.0000    0.39166   0.95683   0.67777   Biso      1.000     N          0.072933  
         N9        1.0000    0.10834   0.54317   0.32223   Biso      1.000     N          0.071952  
         N10       1.0000    0.89166   0.45683   0.67777   Biso      1.000     N          0.071806  
         N11       1.0000    0.91540   0.53719   0.68146   Biso      1.000     N          -0.068718           
         N12       1.0000    0.95718   0.51603   0.66095   Biso      1.000     N          -0.145741           
         N13       1.0000    0.04282   0.48397   0.33905   Biso      1.000     N          -0.146211           
         N14       1.0000    0.08460   0.53719   0.81854   Biso      1.000     N          -0.068404           
         N15       1.0000    0.08460   0.46281   0.31854   Biso      1.000     N          -0.068402           
         N16       1.0000    0.39166   0.04317   0.17777   Biso      1.000     N          0.072928  
         N17       1.0000    0.58460   0.03719   0.81854   Biso      1.000     N          -0.069565           
         N18       1.0000    0.60834   0.95683   0.82223   Biso      1.000     N          0.073614  
         N19       1.0000    0.89166   0.54317   0.17777   Biso      1.000     N          0.071802  
         N20       1.0000    0.91540   0.46281   0.18146   Biso      1.000     N          -0.068717           
         N21       1.0000    0.95718   0.48397   0.16095   Biso      1.000     N          -0.145736           
         N22       1.0000    0.45718   0.98397   0.16095   Biso      1.000     N          -0.142356           
         N23       1.0000    0.41540   0.96281   0.18146   Biso      1.000     N          -0.070138           
         N24       1.0000    0.54282   0.01603   0.83905   Biso      1.000     N          -0.13741  
         O1        1.0000    0.86357   0.67890   0.50690   Biso      1.000     O          -0.575007           
         O2        1.0000    0.20530   0.72815   0.13640   Biso      1.000     O          -0.534208           
         O3        1.0000    0.26569   0.65008   0.14930   Biso      1.000     O          -0.581313           
         O4        1.0000    0.72986   0.83650   0.44410   Biso      1.000     O          -0.607198           
         O5        1.0000    0.28539   0.41768   0.42110   Biso      1.000     O          -0.537535           
         O6        1.0000    0.37931   0.31140   0.45340   Biso      1.000     O          -0.502704           
         O7        1.0000    0.36357   0.17890   0.50690   Biso      1.000     O          -0.554442           
         O8        1.0000    0.22986   0.33650   0.44410   Biso      1.000     O          -0.607437           
         O9        1.0000    0.78539   0.91768   0.42110   Biso      1.000     O          -0.539774           
         O10       1.0000    0.87931   0.81140   0.45340   Biso      1.000     O          -0.507785           
         O11       1.0000    0.23431   0.84992   0.85070   Biso      1.000     O          -0.578497           
         O12       1.0000    0.29470   0.22815   0.36360   Biso      1.000     O          -0.537423           
         O13       1.0000    0.12069   0.18860   0.54660   Biso      1.000     O          -0.506791           
         O14       1.0000    0.71461   0.58232   0.57890   Biso      1.000     O          -0.535554           
         O15       1.0000    0.77014   0.66350   0.55590   Biso      1.000     O          -0.608229           
         O16       1.0000    0.76569   0.84992   0.64930   Biso      1.000     O          -0.576136           
         O17       1.0000    0.70530   0.77185   0.63640   Biso      1.000     O          -0.530656           
         O18       1.0000    0.36357   0.82110   0.00690   Biso      1.000     O          -0.554443           
         O19       1.0000    0.37931   0.68860   0.95340   Biso      1.000     O          -0.502708           
         O20       1.0000    0.78539   0.08232   0.92110   Biso      1.000     O          -0.539766           
         O21       1.0000    0.72986   0.16350   0.94410   Biso      1.000     O          -0.607183           
         O22       1.0000    0.26569   0.34992   0.64930   Biso      1.000     O          -0.58131  
         O23       1.0000    0.20530   0.27185   0.63640   Biso      1.000     O          -0.534206           
         O24       1.0000    0.86357   0.32110   0.00690   Biso      1.000     O          -0.575013           
         O25       1.0000    0.87931   0.18860   0.95340   Biso      1.000     O          -0.507783           
         O26       1.0000    0.28539   0.58232   0.92110   Biso      1.000     O          -0.537533           
         O27       1.0000    0.22986   0.66350   0.94410   Biso      1.000     O          -0.607435           
         O28       1.0000    0.13643   0.32110   0.49310   Biso      1.000     O          -0.573852           
         O29       1.0000    0.23431   0.15008   0.35070   Biso      1.000     O          -0.578495           
         O30       1.0000    0.79470   0.27185   0.86360   Biso      1.000     O          -0.534338           
         O31       1.0000    0.27014   0.16350   0.55590   Biso      1.000     O          -0.610408           
         O32       1.0000    0.63643   0.17890   0.99310   Biso      1.000     O          -0.568032           
         O33       1.0000    0.62069   0.31140   0.04660   Biso      1.000     O          -0.514426           
         O34       1.0000    0.21461   0.91768   0.07890   Biso      1.000     O          -0.540995           
         O35       1.0000    0.27014   0.83650   0.05590   Biso      1.000     O          -0.610406           
         O36       1.0000    0.73431   0.65008   0.35070   Biso      1.000     O          -0.579488           
         O37       1.0000    0.79470   0.72815   0.36360   Biso      1.000     O          -0.534322           
         O38       1.0000    0.13643   0.67890   0.99310   Biso      1.000     O          -0.573852           
         O39       1.0000    0.12069   0.81140   0.04660   Biso      1.000     O          -0.506791           
         O40       1.0000    0.71461   0.41768   0.07890   Biso      1.000     O          -0.535541           
         O41       1.0000    0.77014   0.33650   0.05590   Biso      1.000     O          -0.608209           
         O42       1.0000    0.70530   0.22815   0.13640   Biso      1.000     O          -0.53067  
         O43       1.0000    0.29470   0.77185   0.86360   Biso      1.000     O          -0.537423           
         O44       1.0000    0.63643   0.82110   0.49310   Biso      1.000     O          -0.568025           
         O45       1.0000    0.62069   0.68860   0.54660   Biso      1.000     O          -0.514425           
         O46       1.0000    0.21461   0.08232   0.57890   Biso      1.000     O          -0.540997           
         O47       1.0000    0.73431   0.34992   0.85070   Biso      1.000     O          -0.579513           
         O48       1.0000    0.76569   0.15008   0.14930   Biso      1.000     O          -0.576155 