
##########################################################################
#               Crystallographic Information Format file
#               Produced by PyCifRW module
#
#  This is a CIF file.  CIF has been adopted by the International
#  Union of Crystallography as the standard for data archiving and
#  transmission.
#
#  For information on this file format, follow the CIF links at
#  http://www.iucr.org
##########################################################################

data_image0

_cell_length_a                          19.758
_cell_length_b                          7.228
_cell_length_c                          17.53
_cell_angle_alpha                       90
_cell_angle_beta                        90
_cell_angle_gamma                       90
_symmetry_space_group_name_H-M          'P 1'
_symmetry_int_tables_number             1
loop_
  _symmetry_equiv_pos_as_xyz
         'x, y, z' 
loop_
  _atom_site_label
  _atom_site_occupancy
  _atom_site_fract_x
  _atom_site_fract_y
  _atom_site_fract_z
  _atom_site_thermal_displace_type
  _atom_site_B_iso_or_equiv
  _atom_site_type_symbol
  _atom_site_charge
         C1        1.0000    0.37330   0.60100   0.67190   Biso      1.000     C          -0.029024           
         C2        1.0000    0.09650   0.25000   0.90350   Biso      1.000     C          -0.126863           
         C3        1.0000    0.11690   0.25000   0.82920   Biso      1.000     C          0.005769  
         C4        1.0000    0.06510   0.25000   0.76370   Biso      1.000     C          0.552974  
         C5        1.0000    0.12070   0.25000   0.04410   Biso      1.000     C          0.146071  
         C6        1.0000    0.14220   0.25000   0.96280   Biso      1.000     C          0.075544  
         C7        1.0000    0.81630   0.75000   0.18930   Biso      1.000     C          -0.092183           
         C8        1.0000    0.21050   0.25000   0.94440   Biso      1.000     C          -0.132456           
         C9        1.0000    0.18370   0.25000   0.81070   Biso      1.000     C          -0.09217  
         C10       1.0000    0.23140   0.25000   0.86910   Biso      1.000     C          0.01048   
         C11       1.0000    0.06580   0.25000   0.28050   Biso      1.000     C          0.26882399999999995           
         C12       1.0000    0.91520   0.75000   0.80130   Biso      1.000     C          0.120051  
         C13       1.0000    0.56580   0.25000   0.21950   Biso      1.000     C          0.268822  
         C14       1.0000    0.35570   0.60100   0.59340   Biso      1.000     C          -0.0612   
         C15       1.0000    0.42200   0.62900   0.57200   Biso      1.000     C          -0.022096           
         C16       1.0000    0.43820   0.62100   0.65030   Biso      1.000     C          -0.011547           
         C17       1.0000    0.80570   0.25000   0.64990   Biso      1.000     C          0.5589569999999999  
         C18       1.0000    0.30570   0.25000   0.85010   Biso      1.000     C          0.558952  
         C19       1.0000    0.08480   0.25000   0.19870   Biso      1.000     C          0.120047  
         C20       1.0000    0.90350   0.75000   0.09650   Biso      1.000     C          -0.126864           
         C21       1.0000    0.88310   0.75000   0.17080   Biso      1.000     C          0.005783  
         C22       1.0000    0.69430   0.75000   0.14990   Biso      1.000     C          0.5589529999999999  
         C23       1.0000    0.41520   0.75000   0.69870   Biso      1.000     C          0.12006800000000001           
         C24       1.0000    0.76860   0.75000   0.13090   Biso      1.000     C          0.010482  
         C25       1.0000    0.31630   0.75000   0.31070   Biso      1.000     C          -0.092185           
         C26       1.0000    0.78950   0.75000   0.05560   Biso      1.000     C          -0.132456           
         C27       1.0000    0.40350   0.75000   0.40350   Biso      1.000     C          -0.126865           
         C28       1.0000    0.38310   0.75000   0.32920   Biso      1.000     C          0.005782  
         C29       1.0000    0.43490   0.75000   0.26370   Biso      1.000     C          0.5529689999999999  
         C30       1.0000    0.37930   0.75000   0.54410   Biso      1.000     C          0.146097  
         C31       1.0000    0.35780   0.75000   0.46280   Biso      1.000     C          0.075541  
         C32       1.0000    0.28950   0.75000   0.44440   Biso      1.000     C          -0.132457           
         C33       1.0000    0.26860   0.75000   0.36910   Biso      1.000     C          0.01048   
         C34       1.0000    0.19430   0.75000   0.35010   Biso      1.000     C          0.5589529999999999  
         C35       1.0000    0.43420   0.75000   0.78050   Biso      1.000     C          0.268821  
         C36       1.0000    0.85780   0.75000   0.03720   Biso      1.000     C          0.075546  
         C37       1.0000    0.87930   0.75000   0.95590   Biso      1.000     C          0.14607699999999998           
         C38       1.0000    0.93490   0.75000   0.23630   Biso      1.000     C          0.5529729999999999  
         C39       1.0000    0.73140   0.25000   0.63090   Biso      1.000     C          0.01048   
         C40       1.0000    0.14430   0.39900   0.09340   Biso      1.000     C          -0.061203999999999995         
         C41       1.0000    0.93420   0.75000   0.71950   Biso      1.000     C          0.268822  
         C42       1.0000    0.06180   0.37900   0.15030   Biso      1.000     C          -0.011548000000000001         
         C43       1.0000    0.64430   0.39900   0.40660   Biso      1.000     C          -0.061204999999999996         
         C44       1.0000    0.57800   0.37100   0.42800   Biso      1.000     C          -0.022096           
         C45       1.0000    0.56180   0.37900   0.34970   Biso      1.000     C          -0.011567000000000001         
         C46       1.0000    0.07800   0.37100   0.07200   Biso      1.000     C          -0.022068           
         C47       1.0000    0.62670   0.39900   0.32810   Biso      1.000     C          -0.029005           
         C48       1.0000    0.59650   0.25000   0.59650   Biso      1.000     C          -0.126863           
         C49       1.0000    0.61690   0.25000   0.67080   Biso      1.000     C          0.005771  
         C50       1.0000    0.58480   0.25000   0.30130   Biso      1.000     C          0.120071  
         C51       1.0000    0.85570   0.60100   0.90660   Biso      1.000     C          -0.061208000000000005         
         C52       1.0000    0.92200   0.62900   0.92800   Biso      1.000     C          -0.022073           
         C53       1.0000    0.93820   0.62100   0.84970   Biso      1.000     C          -0.011545999999999999         
         C54       1.0000    0.87330   0.60100   0.82810   Biso      1.000     C          -0.029004000000000002         
         C55       1.0000    0.68370   0.25000   0.68930   Biso      1.000     C          -0.092172           
         C56       1.0000    0.43820   0.87900   0.65030   Biso      1.000     C          -0.011545999999999999         
         C57       1.0000    0.37330   0.89900   0.67190   Biso      1.000     C          -0.029006999999999998         
         C58       1.0000    0.35570   0.89900   0.59340   Biso      1.000     C          -0.061203999999999995         
         C59       1.0000    0.56510   0.25000   0.73630   Biso      1.000     C          0.55297   
         C60       1.0000    0.93820   0.87900   0.84970   Biso      1.000     C          -0.011547           
         C61       1.0000    0.12670   0.39900   0.17190   Biso      1.000     C          -0.029006           
         C62       1.0000    0.71050   0.25000   0.55560   Biso      1.000     C          -0.132458           
         C63       1.0000    0.12670   0.10100   0.17190   Biso      1.000     C          -0.029025           
         C64       1.0000    0.64430   0.10100   0.40660   Biso      1.000     C          -0.061203999999999995         
         C65       1.0000    0.57800   0.12900   0.42800   Biso      1.000     C          -0.022098           
         C66       1.0000    0.06180   0.12100   0.15030   Biso      1.000     C          -0.011526           
         C67       1.0000    0.87330   0.89900   0.82810   Biso      1.000     C          -0.029005           
         C68       1.0000    0.56180   0.12100   0.34970   Biso      1.000     C          -0.011542           
         C69       1.0000    0.62670   0.10100   0.32810   Biso      1.000     C          -0.029008           
         C70       1.0000    0.14430   0.10100   0.09340   Biso      1.000     C          -0.061202           
         C71       1.0000    0.64220   0.25000   0.53720   Biso      1.000     C          0.075541  
         C72       1.0000    0.62070   0.25000   0.45590   Biso      1.000     C          0.146129  
         C73       1.0000    0.85570   0.89900   0.90660   Biso      1.000     C          -0.061207000000000004         
         C74       1.0000    0.92200   0.87100   0.92800   Biso      1.000     C          -0.022073           
         C75       1.0000    0.07800   0.12900   0.07200   Biso      1.000     C          -0.022069           
         C76       1.0000    0.42200   0.87100   0.57200   Biso      1.000     C          -0.022066           
         Cd1       1.0000    0.50000   0.50000   0.00000   Biso      1.000     Cd          0.866408  
         Cd2       1.0000    0.00000   0.50000   0.50000   Biso      1.000     Cd          0.8664270000000001  
         Cd3       1.0000    0.50000   0.00000   0.00000   Biso      1.000     Cd          0.8664379999999999  
         Cd4       1.0000    0.05993   0.75000   0.31937   Biso      1.000     Cd          0.921744  
         Cd5       1.0000    0.94007   0.25000   0.68063   Biso      1.000     Cd          0.921741  
         Cd6       1.0000    0.44007   0.25000   0.81937   Biso      1.000     Cd          0.92174   
         Cd7       1.0000    0.55993   0.75000   0.18063   Biso      1.000     Cd          0.9217420000000001  
         Cd8       1.0000    0.00000   0.00000   0.50000   Biso      1.000     Cd          0.866424  
         H1        1.0000    0.69730   0.25000   0.74000   Biso      1.000     H          0.139238  
         H2        1.0000    0.55040   0.25000   0.58550   Biso      1.000     H          0.12520499999999998           
         H3        1.0000    0.94960   0.75000   0.08550   Biso      1.000     H          0.12520499999999998           
         H4        1.0000    0.80270   0.75000   0.24000   Biso      1.000     H          0.139236  
         H5        1.0000    0.74260   0.25000   0.51680   Biso      1.000     H          0.128916  
         H6        1.0000    0.75740   0.75000   0.01680   Biso      1.000     H          0.128914  
         H7        1.0000    0.19730   0.25000   0.76000   Biso      1.000     H          0.139234  
         H8        1.0000    0.30270   0.75000   0.26000   Biso      1.000     H          0.139238  
         H9        1.0000    0.44960   0.75000   0.41450   Biso      1.000     H          0.12520599999999998           
         H10       1.0000    0.25740   0.75000   0.48320   Biso      1.000     H          0.128916  
         H11       1.0000    0.24260   0.25000   0.98320   Biso      1.000     H          0.128914  
         H12       1.0000    0.05040   0.25000   0.91450   Biso      1.000     H          0.12520599999999998           
         N1        1.0000    0.05600   0.09710   0.32190   Biso      1.000     N          -0.225189           
         N2        1.0000    0.03940   0.33890   0.39100   Biso      1.000     N          -0.043386           
         N3        1.0000    0.05600   0.40290   0.32190   Biso      1.000     N          -0.22514499999999998          
         N4        1.0000    0.53940   0.16110   0.10900   Biso      1.000     N          -0.043389           
         N5        1.0000    0.55600   0.09710   0.17810   Biso      1.000     N          -0.225146           
         N6        1.0000    0.96060   0.83890   0.60900   Biso      1.000     N          -0.043382           
         N7        1.0000    0.94400   0.90290   0.67810   Biso      1.000     N          -0.22514499999999998          
         N8        1.0000    0.55600   0.40290   0.17810   Biso      1.000     N          -0.22519  
         N9        1.0000    0.44400   0.59710   0.82190   Biso      1.000     N          -0.225189           
         N10       1.0000    0.96060   0.66110   0.60900   Biso      1.000     N          -0.043254           
         N11       1.0000    0.94400   0.59710   0.67810   Biso      1.000     N          -0.22516  
         N12       1.0000    0.46060   0.83890   0.89100   Biso      1.000     N          -0.043389           
         N13       1.0000    0.44400   0.90290   0.82190   Biso      1.000     N          -0.225146           
         N14       1.0000    0.03940   0.16110   0.39100   Biso      1.000     N          -0.043225           
         N15       1.0000    0.53940   0.33890   0.10900   Biso      1.000     N          -0.043223000000000004         
         N16       1.0000    0.46060   0.66110   0.89100   Biso      1.000     N          -0.043224           
         O1        1.0000    0.00090   0.25000   0.57200   Biso      1.000     O          -0.721208           
         O2        1.0000    0.99630   0.75000   0.21740   Biso      1.000     O          -0.5405760000000001           
         O3        1.0000    0.58550   0.25000   0.80200   Biso      1.000     O          -0.447622           
         O4        1.0000    0.91450   0.75000   0.30200   Biso      1.000     O          -0.44763100000000006          
         O5        1.0000    0.65250   0.75000   0.09530   Biso      1.000     O          -0.546561           
         O6        1.0000    0.99910   0.75000   0.42800   Biso      1.000     O          -0.7212069999999999           
         O7        1.0000    0.41450   0.75000   0.19800   Biso      1.000     O          -0.447622           
         O8        1.0000    0.49630   0.75000   0.28260   Biso      1.000     O          -0.540575           
         O9        1.0000    0.17420   0.75000   0.28230   Biso      1.000     O          -0.528127           
         O10       1.0000    0.15250   0.75000   0.40470   Biso      1.000     O          -0.546563           
         O11       1.0000    0.50090   0.25000   0.92800   Biso      1.000     O          -0.721201           
         O12       1.0000    0.08550   0.25000   0.69800   Biso      1.000     O          -0.44762700000000005          
         O13       1.0000    0.00370   0.25000   0.78260   Biso      1.000     O          -0.5405760000000001           
         O14       1.0000    0.49910   0.75000   0.07200   Biso      1.000     O          -0.721202           
         O15       1.0000    0.32580   0.25000   0.78230   Biso      1.000     O          -0.528126           
         O16       1.0000    0.84750   0.25000   0.59530   Biso      1.000     O          -0.546566           
         O17       1.0000    0.82580   0.25000   0.71770   Biso      1.000     O          -0.528133           
         O18       1.0000    0.67420   0.75000   0.21770   Biso      1.000     O          -0.528129           
         O19       1.0000    0.34750   0.25000   0.90470   Biso      1.000     O          -0.546562           
         O20       1.0000    0.50370   0.25000   0.71740   Biso      1.000     O          -0.5405760000000001 