
##########################################################################
#               Crystallographic Information Format file
#               Produced by PyCifRW module
#
#  This is a CIF file.  CIF has been adopted by the International
#  Union of Crystallography as the standard for data archiving and
#  transmission.
#
#  For information on this file format, follow the CIF links at
#  http://www.iucr.org
##########################################################################

data_image0

_cell_length_a                          11.6635
_cell_length_b                          21.3807
_cell_length_c                          21.3807
_cell_angle_alpha                       63.2305
_cell_angle_beta                        79.5232
_cell_angle_gamma                       100.477
_symmetry_space_group_name_H-M          'P 1'
_symmetry_int_tables_number             1
loop_
  _symmetry_equiv_pos_as_xyz
         'x, y, z' 
loop_
  _atom_site_label
  _atom_site_occupancy
  _atom_site_fract_x
  _atom_site_fract_y
  _atom_site_fract_z
  _atom_site_thermal_displace_type
  _atom_site_B_iso_or_equiv
  _atom_site_type_symbol
  _atom_site_charge
         C1        1.0000    0.97120   0.14440   0.56190   Biso      1.000     C          0.0068    
         C2        1.0000    0.02880   0.85560   0.43810   Biso      1.000     C          0.0067989999999999995         
         C3        1.0000    0.91910   0.81420   0.43750   Biso      1.000     C          0.12595699999999999           
         C4        1.0000    0.92370   0.74820   0.44020   Biso      1.000     C          0.010976  
         C5        1.0000    0.20660   0.51200   0.52590   Biso      1.000     C          0.540351  
         C6        1.0000    0.52340   0.54190   0.10420   Biso      1.000     C          0.670976  
         C7        1.0000    0.53230   0.55630   0.16720   Biso      1.000     C          -0.074148           
         C8        1.0000    0.42920   0.56050   0.27310   Biso      1.000     C          -0.06250800000000001          
         C9        1.0000    0.30570   0.55350   0.32130   Biso      1.000     C          0.587904  
         C10       1.0000    0.53310   0.56190   0.29370   Biso      1.000     C          0.007628  
         C11       1.0000    0.64340   0.56250   0.25170   Biso      1.000     C          0.126108  
         C12       1.0000    0.63610   0.55980   0.18840   Biso      1.000     C          0.010791  
         C13       1.0000    0.26750   0.47410   0.03790   Biso      1.000     C          0.540898  
         C14       1.0000    0.62760   0.10420   0.35390   Biso      1.000     C          0.672769  
         C15       1.0000    0.69950   0.16720   0.27650   Biso      1.000     C          -0.077692           
         C16       1.0000    0.63710   0.20910   0.23260   Biso      1.000     C          0.045860000000000005          
         C17       1.0000    0.70230   0.27310   0.16640   Biso      1.000     C          -0.061035           
         C18       1.0000    0.62700   0.32130   0.12520   Biso      1.000     C          0.586264  
         C19       1.0000    0.82680   0.29370   0.14440   Biso      1.000     C          0.011122  
         C20       1.0000    0.89510   0.25170   0.18580   Biso      1.000     C          0.121351  
         C21       1.0000    0.82450   0.18840   0.25180   Biso      1.000     C          0.012306999999999998          
         C22       1.0000    0.30540   0.03790   0.48800   Biso      1.000     C          0.542393  
         C23       1.0000    0.98150   0.35390   0.54190   Biso      1.000     C          0.671139  
         C24       1.0000    0.97600   0.27650   0.55630   Biso      1.000     C          -0.073792           
         C25       1.0000    0.86970   0.23260   0.55830   Biso      1.000     C          0.043509  
         C26       1.0000    0.86870   0.16640   0.56050   Biso      1.000     C          -0.05650499999999999          
         C27       1.0000    0.75220   0.12520   0.55350   Biso      1.000     C          0.5883149999999999  
         C28       1.0000    0.08090   0.18580   0.56250   Biso      1.000     C          0.12595699999999999           
         C29       1.0000    0.07630   0.25180   0.55980   Biso      1.000     C          0.010981  
         C30       1.0000    0.79340   0.48800   0.47410   Biso      1.000     C          0.540353  
         C31       1.0000    0.24780   0.87480   0.44650   Biso      1.000     C          0.588314  
         C32       1.0000    0.13130   0.83360   0.43950   Biso      1.000     C          -0.05650499999999999          
         C33       1.0000    0.42800   0.55830   0.20910   Biso      1.000     C          0.04622   
         C34       1.0000    0.02400   0.72350   0.44370   Biso      1.000     C          -0.073785           
         C35       1.0000    0.47660   0.45810   0.89580   Biso      1.000     C          0.67097   
         C36       1.0000    0.46770   0.44370   0.83280   Biso      1.000     C          -0.074149           
         C37       1.0000    0.57200   0.44170   0.79090   Biso      1.000     C          0.04622   
         C38       1.0000    0.57080   0.43950   0.72690   Biso      1.000     C          -0.06250900000000001          
         C39       1.0000    0.69430   0.44650   0.67870   Biso      1.000     C          0.5879    
         C40       1.0000    0.46690   0.43810   0.70630   Biso      1.000     C          0.007628  
         C41       1.0000    0.35660   0.43750   0.74830   Biso      1.000     C          0.126112  
         C42       1.0000    0.36390   0.44020   0.81160   Biso      1.000     C          0.010790000000000001          
         C43       1.0000    0.73250   0.52590   0.96210   Biso      1.000     C          0.54092   
         C44       1.0000    0.13030   0.76740   0.44170   Biso      1.000     C          0.043509  
         C45       1.0000    0.37240   0.89580   0.64610   Biso      1.000     C          0.672767  
         C46       1.0000    0.36290   0.79090   0.76740   Biso      1.000     C          0.045859  
         C47       1.0000    0.29770   0.72690   0.83360   Biso      1.000     C          -0.061038           
         C48       1.0000    0.37300   0.67870   0.87480   Biso      1.000     C          0.586266  
         C49       1.0000    0.17320   0.70630   0.85560   Biso      1.000     C          0.01112   
         C50       1.0000    0.10490   0.74830   0.81420   Biso      1.000     C          0.12135499999999999           
         C51       1.0000    0.17550   0.81160   0.74820   Biso      1.000     C          0.012298  
         C52       1.0000    0.69460   0.96210   0.51200   Biso      1.000     C          0.542392  
         C53       1.0000    0.01850   0.64610   0.45810   Biso      1.000     C          0.671139  
         C54       1.0000    0.30050   0.83280   0.72350   Biso      1.000     C          -0.07768  
         H1        1.0000    0.79000   0.50200   0.98800   Biso      1.000     H          0.013280000000000002          
         H2        1.0000    0.28800   0.51000   0.50200   Biso      1.000     H          0.013073  
         H3        1.0000    0.77800   0.98800   0.51000   Biso      1.000     H          0.012189  
         H4        1.0000    0.22200   0.01200   0.49000   Biso      1.000     H          0.012188  
         H5        1.0000    0.71200   0.49000   0.49800   Biso      1.000     H          0.013069999999999998          
         H6        1.0000    0.21000   0.49800   0.01200   Biso      1.000     H          0.013275  
         I1        1.0000    0.71028   0.26486   0.56524   Biso      1.000     I          0.032958999999999995          
         I2        1.0000    0.91509   0.12078   0.31711   Biso      1.000     I          0.012542  
         I3        1.0000    0.92354   0.39177   0.04587   Biso      1.000     I          0.048489  
         I4        1.0000    0.44542   0.16990   0.26486   Biso      1.000     I          0.033739  
         I5        1.0000    0.79431   0.56211   0.12078   Biso      1.000     I          0.012647  
         I6        1.0000    0.53177   0.56236   0.39177   Biso      1.000     I          0.04918   
         I7        1.0000    0.27552   0.56524   0.16990   Biso      1.000     I          0.034020999999999996          
         I8        1.0000    0.76780   0.68289   0.43789   Biso      1.000     I          0.01174   
         I9        1.0000    0.03059   0.95413   0.43764   Biso      1.000     I          0.049006  
         I10       1.0000    0.28972   0.73514   0.43476   Biso      1.000     I          0.032962  
         I11       1.0000    0.08491   0.87922   0.68289   Biso      1.000     I          0.012545  
         I12       1.0000    0.07646   0.60823   0.95413   Biso      1.000     I          0.048501999999999997          
         I13       1.0000    0.20569   0.43789   0.87922   Biso      1.000     I          0.012653  
         I14       1.0000    0.46823   0.43764   0.60823   Biso      1.000     I          0.049192  
         I15       1.0000    0.72448   0.43476   0.83010   Biso      1.000     I          0.034010000000000006          
         I16       1.0000    0.96941   0.04587   0.56236   Biso      1.000     I          0.049002  
         I17       1.0000    0.55458   0.83010   0.73514   Biso      1.000     I          0.033726  
         I18       1.0000    0.23220   0.31711   0.56211   Biso      1.000     I          0.011732  
         N1        1.0000    0.18190   0.16290   0.56420   Biso      1.000     N          -0.201728           
         N2        1.0000    0.01900   0.27290   0.16290   Biso      1.000     N          -0.20038599999999998          
         N3        1.0000    0.74610   0.56420   0.27290   Biso      1.000     N          -0.20239200000000002          
         N4        1.0000    0.25390   0.43580   0.72710   Biso      1.000     N          -0.202401           
         N5        1.0000    0.81810   0.83710   0.43580   Biso      1.000     N          -0.201728           
         N6        1.0000    0.98100   0.72710   0.83710   Biso      1.000     N          -0.20039400000000002          
         Nd1       1.0000    0.44474   0.39054   0.07967   Biso      1.000     Nd          2.110204  
         Nd2       1.0000    0.94580   0.47021   0.60947   Biso      1.000     Nd          2.1098169999999996  
         Nd3       1.0000    0.47559   0.92033   0.47021   Biso      1.000     Nd          2.109973  
         Nd4       1.0000    0.55527   0.60947   0.92032   Biso      1.000     Nd          2.110176  
         Nd5       1.0000    0.05420   0.52979   0.39054   Biso      1.000     Nd          2.109846  
         Nd6       1.0000    0.52441   0.07967   0.52979   Biso      1.000     Nd          2.109973  
         O1        1.0000    0.47817   0.47533   0.12562   Biso      1.000     O          -0.640818           
         O2        1.0000    0.28350   0.60960   0.31650   Biso      1.000     O          -0.642465           
         O3        1.0000    0.23550   0.49170   0.36150   Biso      1.000     O          -0.6341100000000001           
         O4        1.0000    0.37700   0.50808   0.00738   Biso      1.000     O          -0.689533           
         O5        1.0000    0.23050   0.40630   0.08200   Biso      1.000     O          -0.614743           
         O6        1.0000    0.59804   0.04025   0.36363   Biso      1.000     O          -0.649913           
         O7        1.0000    0.60379   0.12562   0.39905   Biso      1.000     O          -0.640343           
         O8        1.0000    0.38438   0.00738   0.48454   Biso      1.000     O          -0.69085  
         O9        1.0000    0.59700   0.36150   0.14680   Biso      1.000     O          -0.6330180000000001           
         O10       1.0000    0.55779   0.59612   0.04025   Biso      1.000     O          -0.648744           
         O11       1.0000    0.31250   0.08200   0.51170   Biso      1.000     O          -0.613722           
         O12       1.0000    0.96167   0.36363   0.59612   Biso      1.000     O          -0.649733           
         O13       1.0000    0.00284   0.39905   0.47533   Biso      1.000     O          -0.640754           
         O14       1.0000    0.67390   0.07390   0.60960   Biso      1.000     O          -0.643687           
         O15       1.0000    0.74380   0.14680   0.49170   Biso      1.000     O          -0.634602           
         O16       1.0000    0.60000   0.31650   0.07390   Biso      1.000     O          -0.642334           
         O17       1.0000    0.17580   0.48830   0.59370   Biso      1.000     O          -0.614206           
         O18       1.0000    0.25620   0.85320   0.50830   Biso      1.000     O          -0.634606           
         O19       1.0000    0.86892   0.48454   0.50808   Biso      1.000     O          -0.688752           
         O20       1.0000    0.44221   0.40388   0.95975   Biso      1.000     O          -0.648728           
         O21       1.0000    0.52183   0.52467   0.87438   Biso      1.000     O          -0.640814           
         O22       1.0000    0.71650   0.39040   0.68350   Biso      1.000     O          -0.642444           
         O23       1.0000    0.76450   0.50830   0.63850   Biso      1.000     O          -0.634096           
         O24       1.0000    0.62300   0.49192   0.99262   Biso      1.000     O          -0.689576           
         O25       1.0000    0.76950   0.59370   0.91800   Biso      1.000     O          -0.614755           
         O26       1.0000    0.40196   0.95975   0.63637   Biso      1.000     O          -0.64991  
         O27       1.0000    0.39621   0.87438   0.60095   Biso      1.000     O          -0.640343           
         O28       1.0000    0.40000   0.68350   0.92610   Biso      1.000     O          -0.642307           
         O29       1.0000    0.40300   0.63850   0.85320   Biso      1.000     O          -0.6330140000000001           
         O30       1.0000    0.61562   0.99262   0.51546   Biso      1.000     O          -0.6908489999999999           
         O31       1.0000    0.68750   0.91800   0.48830   Biso      1.000     O          -0.6137229999999999           
         O32       1.0000    0.03833   0.63637   0.40388   Biso      1.000     O          -0.649738           
         O33       1.0000    0.99716   0.60095   0.52467   Biso      1.000     O          -0.640785           
         O34       1.0000    0.32610   0.92610   0.39040   Biso      1.000     O          -0.643683           
         O35       1.0000    0.13108   0.51546   0.49192   Biso      1.000     O          -0.688715           
         O36       1.0000    0.82420   0.51170   0.40630   Biso      1.000     O          -0.61421 