
##########################################################################
#               Crystallographic Information Format file
#               Produced by PyCifRW module
#
#  This is a CIF file.  CIF has been adopted by the International
#  Union of Crystallography as the standard for data archiving and
#  transmission.
#
#  For information on this file format, follow the CIF links at
#  http://www.iucr.org
##########################################################################

data_image0

_cell_length_a                          11.6868
_cell_length_b                          21.3912
_cell_length_c                          21.3912
_cell_angle_alpha                       63.2401
_cell_angle_beta                        79.5072
_cell_angle_gamma                       100.493
_symmetry_space_group_name_H-M          'P 1'
_symmetry_int_tables_number             1
loop_
  _symmetry_equiv_pos_as_xyz
         'x, y, z' 
loop_
  _atom_site_label
  _atom_site_occupancy
  _atom_site_fract_x
  _atom_site_fract_y
  _atom_site_fract_z
  _atom_site_thermal_displace_type
  _atom_site_B_iso_or_equiv
  _atom_site_type_symbol
  _atom_site_charge
         C1        1.0000    0.63720   0.76870   0.79110   Biso      1.000     C          0.029064  
         C2        1.0000    0.02910   0.56420   0.14300   Biso      1.000     C          -0.055282000000000005         
         C3        1.0000    0.79460   0.52680   0.51060   Biso      1.000     C          0.48778599999999994           
         C4        1.0000    0.62930   0.87500   0.67810   Biso      1.000     C          0.588637  
         C5        1.0000    0.70010   0.83510   0.72790   Biso      1.000     C          -0.049102999999999994         
         C6        1.0000    0.69890   0.72390   0.83420   Biso      1.000     C          -0.078294           
         C7        1.0000    0.62630   0.64630   0.89670   Biso      1.000     C          0.683768  
         C8        1.0000    0.82540   0.74860   0.81270   Biso      1.000     C          -0.030022000000000004         
         C9        1.0000    0.89480   0.81660   0.74780   Biso      1.000     C          0.23943699999999998           
         C10       1.0000    0.82790   0.85700   0.70720   Biso      1.000     C          -0.030524000000000003         
         C11       1.0000    0.69480   0.48940   0.03740   Biso      1.000     C          0.49011800000000005           
         C12       1.0000    0.30740   0.67810   0.44690   Biso      1.000     C          0.5961529999999999  
         C13       1.0000    0.42800   0.72790   0.43700   Biso      1.000     C          -0.039060000000000004         
         C14       1.0000    0.92180   0.56440   0.18340   Biso      1.000     C          0.249779  
         C15       1.0000    0.42830   0.79110   0.44020   Biso      1.000     C          -0.005913           
         C16       1.0000    0.52300   0.89670   0.45700   Biso      1.000     C          0.687606  
         C17       1.0000    0.63810   0.81270   0.43870   Biso      1.000     C          -0.061829999999999996         
         C18       1.0000    0.64260   0.74780   0.43560   Biso      1.000     C          0.254181  
         C19       1.0000    0.53510   0.70720   0.43580   Biso      1.000     C          -0.067201           
         C20       1.0000    0.73220   0.03740   0.47320   Biso      1.000     C          0.487622  
         C21       1.0000    0.75430   0.44690   0.87500   Biso      1.000     C          0.595735  
         C22       1.0000    0.86500   0.43700   0.83510   Biso      1.000     C          -0.043452           
         C23       1.0000    0.86850   0.44020   0.76870   Biso      1.000     C          0.004064  
         C24       1.0000    0.97500   0.44190   0.72390   Biso      1.000     C          -0.068508           
         C25       1.0000    0.98000   0.45700   0.64630   Biso      1.000     C          0.685125  
         C26       1.0000    0.07680   0.43870   0.74860   Biso      1.000     C          -0.048486           
         C27       1.0000    0.07820   0.43560   0.81660   Biso      1.000     C          0.249779  
         C28       1.0000    0.53310   0.83420   0.44190   Biso      1.000     C          -0.06603099999999999          
         C29       1.0000    0.97090   0.43580   0.85700   Biso      1.000     C          -0.055282000000000005         
         C30       1.0000    0.92320   0.56130   0.25140   Biso      1.000     C          -0.048487999999999996         
         C31       1.0000    0.02500   0.55810   0.27610   Biso      1.000     C          -0.068506           
         C32       1.0000    0.37070   0.12500   0.32190   Biso      1.000     C          0.588637  
         C33       1.0000    0.29990   0.16490   0.27210   Biso      1.000     C          -0.049104           
         C34       1.0000    0.36280   0.23130   0.20890   Biso      1.000     C          0.029064999999999997          
         C35       1.0000    0.30110   0.27610   0.16580   Biso      1.000     C          -0.078294           
         C36       1.0000    0.37370   0.35370   0.10330   Biso      1.000     C          0.683768  
         C37       1.0000    0.17460   0.25140   0.18730   Biso      1.000     C          -0.030022000000000004         
         C38       1.0000    0.10520   0.18340   0.25220   Biso      1.000     C          0.23943699999999998           
         C39       1.0000    0.17210   0.14300   0.29280   Biso      1.000     C          -0.030524000000000003         
         C40       1.0000    0.02000   0.54300   0.35370   Biso      1.000     C          0.685125  
         C41       1.0000    0.69260   0.32190   0.55310   Biso      1.000     C          0.5961529999999999  
         C42       1.0000    0.57200   0.27210   0.56300   Biso      1.000     C          -0.039060000000000004         
         C43       1.0000    0.30520   0.51060   0.96260   Biso      1.000     C          0.49011800000000005           
         C44       1.0000    0.46690   0.16580   0.55810   Biso      1.000     C          -0.06603099999999999          
         C45       1.0000    0.13150   0.55980   0.23130   Biso      1.000     C          0.004063000000000001          
         C46       1.0000    0.57170   0.20890   0.55980   Biso      1.000     C          -0.005913           
         C47       1.0000    0.24570   0.55310   0.12500   Biso      1.000     C          0.595735  
         C48       1.0000    0.26780   0.96260   0.52680   Biso      1.000     C          0.487622  
         C49       1.0000    0.13500   0.56300   0.16490   Biso      1.000     C          -0.043451           
         C50       1.0000    0.46490   0.29280   0.56420   Biso      1.000     C          -0.067201           
         C51       1.0000    0.35740   0.25220   0.56440   Biso      1.000     C          0.25418   
         C52       1.0000    0.36190   0.18730   0.56130   Biso      1.000     C          -0.061829999999999996         
         C53       1.0000    0.47700   0.10330   0.54300   Biso      1.000     C          0.687606  
         C54       1.0000    0.20540   0.47320   0.48940   Biso      1.000     C          0.48778599999999994           
         H1        1.0000    0.24632   0.32018   0.57295   Biso      1.000     H          0.287059  
         H2        1.0000    0.17327   0.24225   0.55753   Biso      1.000     H          0.260033  
         H3        1.0000    0.92850   0.18912   0.29698   Biso      1.000     H          0.308587  
         H4        1.0000    0.92866   0.11797   0.26545   Biso      1.000     H          0.3036    
         H5        1.0000    0.24087   0.40264   0.82809   Biso      1.000     H          0.277032  
         H6        1.0000    0.79095   0.53312   0.13517   Biso      1.000     H          0.30198200000000003           
         H7        1.0000    0.20905   0.46688   0.86483   Biso      1.000     H          0.30198200000000003           
         H8        1.0000    0.75913   0.59736   0.17191   Biso      1.000     H          0.277032  
         H9        1.0000    0.07150   0.81088   0.70302   Biso      1.000     H          0.308587  
         H10       1.0000    0.07134   0.88203   0.73455   Biso      1.000     H          0.3036    
         H11       1.0000    0.75368   0.67982   0.42705   Biso      1.000     H          0.287059  
         H12       1.0000    0.82673   0.75775   0.44247   Biso      1.000     H          0.260033  
         I1        1.0000    0.96877   0.43664   0.95516   Biso      1.000     I          0.005018  
         I2        1.0000    0.23150   0.43543   0.68431   Biso      1.000     I          -0.022983           
         I3        1.0000    0.71064   0.43486   0.73495   Biso      1.000     I          -0.029733999999999997         
         I4        1.0000    0.53213   0.60820   0.43664   Biso      1.000     I          0.010877  
         I5        1.0000    0.79607   0.88026   0.43543   Biso      1.000     I          -0.006836           
         I6        1.0000    0.27578   0.83019   0.43486   Biso      1.000     I          -0.038376           
         I7        1.0000    0.46787   0.39180   0.56336   Biso      1.000     I          0.010877  
         I8        1.0000    0.91581   0.68431   0.88026   Biso      1.000     I          -0.030647000000000004         
         I9        1.0000    0.72422   0.16981   0.56514   Biso      1.000     I          -0.038376           
         I10       1.0000    0.07607   0.04484   0.39180   Biso      1.000     I          0.002364  
         I11       1.0000    0.08419   0.31569   0.11974   Biso      1.000     I          -0.030647000000000004         
         I12       1.0000    0.55441   0.26505   0.16981   Biso      1.000     I          -0.014213           
         I13       1.0000    0.20393   0.11974   0.56457   Biso      1.000     I          -0.006836           
         I14       1.0000    0.92393   0.95516   0.60820   Biso      1.000     I          0.002364  
         I15       1.0000    0.28936   0.56514   0.26505   Biso      1.000     I          -0.029733999999999997         
         I16       1.0000    0.76850   0.56457   0.31569   Biso      1.000     I          -0.022982           
         I17       1.0000    0.03123   0.56336   0.04484   Biso      1.000     I          0.005018  
         I18       1.0000    0.44559   0.73495   0.83019   Biso      1.000     I          -0.014213           
         N1        1.0000    0.81710   0.56500   0.16210   Biso      1.000     N          -0.628692           
         N2        1.0000    0.02080   0.83790   0.72710   Biso      1.000     N          -0.666971           
         N3        1.0000    0.74790   0.72710   0.43500   Biso      1.000     N          -0.586331           
         N4        1.0000    0.97920   0.16210   0.27290   Biso      1.000     N          -0.666971           
         N5        1.0000    0.25210   0.27290   0.56500   Biso      1.000     N          -0.586331           
         N6        1.0000    0.18290   0.43500   0.83790   Biso      1.000     N          -0.628692           
         Nd1       1.0000    0.55541   0.07999   0.39036   Biso      1.000     Nd          2.106431  
         Nd2       1.0000    0.94577   0.39036   0.52965   Biso      1.000     Nd          2.107425  
         Nd3       1.0000    0.52458   0.47035   0.92001   Biso      1.000     Nd          2.110804  
         Nd4       1.0000    0.44459   0.92001   0.60964   Biso      1.000     Nd          2.106431  
         Nd5       1.0000    0.05423   0.60964   0.47035   Biso      1.000     Nd          2.107425  
         Nd6       1.0000    0.47542   0.52965   0.07999   Biso      1.000     Nd          2.110804  
         O1        1.0000    0.25550   0.49163   0.14693   Biso      1.000     O          -0.623152           
         O2        1.0000    0.00313   0.52351   0.60142   Biso      1.000     O          -0.641913           
         O3        1.0000    0.96187   0.40342   0.63601   Biso      1.000     O          -0.6563140000000001           
         O4        1.0000    0.17530   0.40610   0.51170   Biso      1.000     O          -0.592249           
         O5        1.0000    0.13046   0.50684   0.48446   Biso      1.000     O          -0.654223           
         O6        1.0000    0.44155   0.03943   0.59658   Biso      1.000     O          -0.654989           
         O7        1.0000    0.52038   0.12493   0.47649   Biso      1.000     O          -0.640655           
         O8        1.0000    0.67102   0.38942   0.92666   Biso      1.000     O          -0.661237           
         O9        1.0000    0.71840   0.31608   0.61058   Biso      1.000     O          -0.659798           
         O10       1.0000    0.38508   0.51554   0.99130   Biso      1.000     O          -0.653488           
         O11       1.0000    0.31300   0.48830   0.91780   Biso      1.000     O          -0.58891  
         O12       1.0000    0.40212   0.36399   0.03943   Biso      1.000     O          -0.656243           
         O13       1.0000    0.39545   0.39858   0.12493   Biso      1.000     O          -0.643804           
         O14       1.0000    0.40232   0.07334   0.31608   Biso      1.000     O          -0.659459           
         O15       1.0000    0.40243   0.14693   0.36144   Biso      1.000     O          -0.621963           
         O16       1.0000    0.76387   0.36144   0.49163   Biso      1.000     O          -0.6222270000000001           
         O17       1.0000    0.74450   0.50837   0.85307   Biso      1.000     O          -0.623153           
         O18       1.0000    0.62362   0.00870   0.50684   Biso      1.000     O          -0.659666           
         O19       1.0000    0.76920   0.08220   0.40610   Biso      1.000     O          -0.6015050000000001           
         O20       1.0000    0.32898   0.61058   0.07334   Biso      1.000     O          -0.661237           
         O21       1.0000    0.99687   0.47649   0.39858   Biso      1.000     O          -0.641913           
         O22       1.0000    0.03813   0.59658   0.36399   Biso      1.000     O          -0.6563140000000001           
         O23       1.0000    0.82470   0.59390   0.48830   Biso      1.000     O          -0.592249           
         O24       1.0000    0.86954   0.49316   0.51554   Biso      1.000     O          -0.654223           
         O25       1.0000    0.23080   0.91780   0.59390   Biso      1.000     O          -0.6015050000000001           
         O26       1.0000    0.59768   0.92666   0.68392   Biso      1.000     O          -0.659459           
         O27       1.0000    0.60455   0.60142   0.87507   Biso      1.000     O          -0.643804           
         O28       1.0000    0.59788   0.63601   0.96057   Biso      1.000     O          -0.656243           
         O29       1.0000    0.68700   0.51170   0.08220   Biso      1.000     O          -0.58891  
         O30       1.0000    0.61492   0.48446   0.00870   Biso      1.000     O          -0.653488           
         O31       1.0000    0.23613   0.63856   0.50837   Biso      1.000     O          -0.6222270000000001           
         O32       1.0000    0.28160   0.68392   0.38942   Biso      1.000     O          -0.659798           
         O33       1.0000    0.47962   0.87507   0.52351   Biso      1.000     O          -0.640655           
         O34       1.0000    0.55845   0.96057   0.40342   Biso      1.000     O          -0.654989           
         O35       1.0000    0.37638   0.99130   0.49316   Biso      1.000     O          -0.659666           
         O36       1.0000    0.59757   0.85307   0.63856   Biso      1.000     O          -0.621963 