
##########################################################################
#               Crystallographic Information Format file
#               Produced by PyCifRW module
#
#  This is a CIF file.  CIF has been adopted by the International
#  Union of Crystallography as the standard for data archiving and
#  transmission.
#
#  For information on this file format, follow the CIF links at
#  http://www.iucr.org
##########################################################################

data_image0

_cell_length_a                          11.6941
_cell_length_b                          21.3768
_cell_length_c                          21.3768
_cell_angle_alpha                       63.2484
_cell_angle_beta                        79.4934
_cell_angle_gamma                       100.507
_symmetry_space_group_name_H-M          'P 1'
_symmetry_int_tables_number             1
loop_
  _symmetry_equiv_pos_as_xyz
         'x, y, z' 
loop_
  _atom_site_label
  _atom_site_occupancy
  _atom_site_fract_x
  _atom_site_fract_y
  _atom_site_fract_z
  _atom_site_thermal_displace_type
  _atom_site_B_iso_or_equiv
  _atom_site_type_symbol
  _atom_site_charge
         C1        1.0000    0.57239   0.20878   0.55861   Biso      1.000     C          -0.005192           
         C2        1.0000    0.82495   0.74755   0.81200   Biso      1.000     C          -0.030626           
         C3        1.0000    0.30540   0.50980   0.96290   Biso      1.000     C          0.484386  
         C4        1.0000    0.47883   0.10366   0.54217   Biso      1.000     C          0.69093   
         C5        1.0000    0.46902   0.16695   0.55629   Biso      1.000     C          -0.064936           
         C6        1.0000    0.57310   0.27290   0.56000   Biso      1.000     C          -0.041055           
         C7        1.0000    0.69330   0.32160   0.55290   Biso      1.000     C          0.596017  
         C8        1.0000    0.46659   0.29368   0.56101   Biso      1.000     C          -0.068921           
         C9        1.0000    0.35775   0.25250   0.56105   Biso      1.000     C          0.261057  
         C10       1.0000    0.36305   0.18800   0.55955   Biso      1.000     C          -0.069335           
         C11       1.0000    0.73170   0.03710   0.47270   Biso      1.000     C          0.48389   
         C12       1.0000    0.02100   0.54217   0.35417   Biso      1.000     C          0.690371  
         C13       1.0000    0.02531   0.55629   0.27676   Biso      1.000     C          -0.071666           
         C14       1.0000    0.89475   0.81355   0.74750   Biso      1.000     C          0.24256   
         C15       1.0000    0.13100   0.55861   0.23261   Biso      1.000     C          0.008186  
         C16       1.0000    0.24620   0.55290   0.12550   Biso      1.000     C          0.594954  
         C17       1.0000    0.02760   0.56101   0.14531   Biso      1.000     C          -0.05827  
         C18       1.0000    0.91880   0.56105   0.18645   Biso      1.000     C          0.25785   
         C19       1.0000    0.92260   0.55955   0.25245   Biso      1.000     C          -0.054406           
         C20       1.0000    0.20440   0.47270   0.49020   Biso      1.000     C          0.480216  
         C21       1.0000    0.37517   0.35417   0.10366   Biso      1.000     C          0.687069  
         C22       1.0000    0.30207   0.27676   0.16695   Biso      1.000     C          -0.078808           
         C23       1.0000    0.36361   0.23261   0.20878   Biso      1.000     C          0.030324  
         C24       1.0000    0.30020   0.16710   0.27290   Biso      1.000     C          -0.0533   
         C25       1.0000    0.37170   0.12550   0.32160   Biso      1.000     C          0.596404  
         C26       1.0000    0.17291   0.14531   0.29368   Biso      1.000     C          -0.032162           
         C27       1.0000    0.10525   0.18645   0.25250   Biso      1.000     C          0.24256   
         C28       1.0000    0.13310   0.56000   0.16710   Biso      1.000     C          -0.04627  
         C29       1.0000    0.17505   0.25245   0.18800   Biso      1.000     C          -0.030626           
         C30       1.0000    0.82709   0.85469   0.70632   Biso      1.000     C          -0.032162           
         C31       1.0000    0.69980   0.83290   0.72710   Biso      1.000     C          -0.053303           
         C32       1.0000    0.52117   0.89634   0.45783   Biso      1.000     C          0.69093   
         C33       1.0000    0.53098   0.83305   0.44371   Biso      1.000     C          -0.064937           
         C34       1.0000    0.42761   0.79122   0.44139   Biso      1.000     C          -0.005191           
         C35       1.0000    0.42690   0.72710   0.44000   Biso      1.000     C          -0.041055           
         C36       1.0000    0.30670   0.67840   0.44710   Biso      1.000     C          0.596017  
         C37       1.0000    0.53341   0.70632   0.43899   Biso      1.000     C          -0.068921           
         C38       1.0000    0.64225   0.74750   0.43895   Biso      1.000     C          0.261057  
         C39       1.0000    0.63695   0.81200   0.44045   Biso      1.000     C          -0.069335           
         C40       1.0000    0.62830   0.87450   0.67840   Biso      1.000     C          0.596405  
         C41       1.0000    0.97900   0.45783   0.64583   Biso      1.000     C          0.690371  
         C42       1.0000    0.97469   0.44371   0.72324   Biso      1.000     C          -0.071666           
         C43       1.0000    0.26830   0.96290   0.52730   Biso      1.000     C          0.48389   
         C44       1.0000    0.86690   0.44000   0.83290   Biso      1.000     C          -0.046273           
         C45       1.0000    0.63639   0.76739   0.79122   Biso      1.000     C          0.030327  
         C46       1.0000    0.86900   0.44139   0.76739   Biso      1.000     C          0.008189  
         C47       1.0000    0.62483   0.64583   0.89634   Biso      1.000     C          0.687069  
         C48       1.0000    0.79560   0.52730   0.50980   Biso      1.000     C          0.480216  
         C49       1.0000    0.69793   0.72324   0.83305   Biso      1.000     C          -0.078808           
         C50       1.0000    0.07740   0.44045   0.74755   Biso      1.000     C          -0.054406           
         C51       1.0000    0.08120   0.43895   0.81355   Biso      1.000     C          0.257851  
         C52       1.0000    0.97240   0.43899   0.85469   Biso      1.000     C          -0.058269           
         C53       1.0000    0.75380   0.44710   0.87450   Biso      1.000     C          0.594954  
         C54       1.0000    0.69460   0.49020   0.03710   Biso      1.000     C          0.484386  
         H1        1.0000    0.82452   0.75691   0.44505   Biso      1.000     H          0.260173  
         H2        1.0000    0.74902   0.67893   0.43028   Biso      1.000     H          0.284808  
         H3        1.0000    0.25098   0.32107   0.56972   Biso      1.000     H          0.284808  
         H4        1.0000    0.17548   0.24309   0.55495   Biso      1.000     H          0.260173  
         H5        1.0000    0.93187   0.12011   0.26618   Biso      1.000     H          0.303927  
         H6        1.0000    0.24119   0.40575   0.82589   Biso      1.000     H          0.277538  
         H7        1.0000    0.93043   0.19107   0.29798   Biso      1.000     H          0.307999  
         H8        1.0000    0.20769   0.46958   0.86293   Biso      1.000     H          0.301948  
         H9        1.0000    0.06957   0.80893   0.70202   Biso      1.000     H          0.307999  
         H10       1.0000    0.06813   0.87989   0.73382   Biso      1.000     H          0.303927  
         H11       1.0000    0.79231   0.53042   0.13707   Biso      1.000     H          0.301948  
         H12       1.0000    0.75881   0.59425   0.17411   Biso      1.000     H          0.277538  
         I1        1.0000    0.08522   0.31785   0.12110   Biso      1.000     I          -0.032061           
         I2        1.0000    0.07656   0.04720   0.39174   Biso      1.000     I          -0.000245           
         I3        1.0000    0.55529   0.26509   0.17040   Biso      1.000     I          -0.016283           
         I4        1.0000    0.76737   0.56105   0.31785   Biso      1.000     I          -0.025382           
         I5        1.0000    0.02936   0.56106   0.04720   Biso      1.000     I          0.002939  
         I6        1.0000    0.29020   0.56451   0.26509   Biso      1.000     I          -0.033237           
         I7        1.0000    0.23263   0.43895   0.68215   Biso      1.000     I          -0.025382           
         I8        1.0000    0.46830   0.39174   0.56106   Biso      1.000     I          0.008944  
         I9        1.0000    0.70980   0.43549   0.73491   Biso      1.000     I          -0.033237           
         I10       1.0000    0.79368   0.87890   0.43895   Biso      1.000     I          -0.009468           
         I11       1.0000    0.53170   0.60826   0.43894   Biso      1.000     I          0.008944  
         I12       1.0000    0.27431   0.82960   0.43549   Biso      1.000     I          -0.040899           
         I13       1.0000    0.97064   0.43894   0.95280   Biso      1.000     I          0.002939  
         I14       1.0000    0.20632   0.12110   0.56105   Biso      1.000     I          -0.009468           
         I15       1.0000    0.44471   0.73491   0.82960   Biso      1.000     I          -0.016284           
         I16       1.0000    0.92344   0.95280   0.60826   Biso      1.000     I          -0.000245           
         I17       1.0000    0.91478   0.68215   0.87890   Biso      1.000     I          -0.032061           
         I18       1.0000    0.72569   0.17040   0.56451   Biso      1.000     I          -0.040899           
         N1        1.0000    0.01824   0.83544   0.72652   Biso      1.000     N          -0.663313           
         N2        1.0000    0.25524   0.27348   0.56196   Biso      1.000     N          -0.577787           
         N3        1.0000    0.81720   0.56196   0.16456   Biso      1.000     N          -0.620983           
         N4        1.0000    0.74476   0.72652   0.43804   Biso      1.000     N          -0.577787           
         N5        1.0000    0.18280   0.43804   0.83544   Biso      1.000     N          -0.620983           
         N6        1.0000    0.98176   0.16456   0.27348   Biso      1.000     N          -0.663313           
         Nd1       1.0000    0.94573   0.39063   0.52988   Biso      1.000     Nd          2.105519  
         Nd2       1.0000    0.47561   0.52988   0.07949   Biso      1.000     Nd          2.1075    
         Nd3       1.0000    0.44490   0.92051   0.60937   Biso      1.000     Nd          2.105694  
         Nd4       1.0000    0.05427   0.60937   0.47012   Biso      1.000     Nd          2.105519  
         Nd5       1.0000    0.52439   0.47012   0.92051   Biso      1.000     Nd          2.1075    
         Nd6       1.0000    0.55510   0.07949   0.39063   Biso      1.000     Nd          2.105694  
         O1        1.0000    0.59721   0.63566   0.95973   Biso      1.000     O          -0.655742           
         O2        1.0000    0.40341   0.14756   0.36193   Biso      1.000     O          -0.640478           
         O3        1.0000    0.40127   0.07444   0.31653   Biso      1.000     O          -0.646282           
         O4        1.0000    0.61495   0.48508   0.00723   Biso      1.000     O          -0.659737           
         O5        1.0000    0.68700   0.51110   0.08230   Biso      1.000     O          -0.575485           
         O6        1.0000    0.67317   0.39097   0.92556   Biso      1.000     O          -0.645207           
         O7        1.0000    0.74415   0.50949   0.85244   Biso      1.000     O          -0.636987           
         O8        1.0000    0.39826   0.39895   0.12537   Biso      1.000     O          -0.646395           
         O9        1.0000    0.00069   0.52432   0.60105   Biso      1.000     O          -0.644127           
         O10       1.0000    0.23070   0.91770   0.59340   Biso      1.000     O          -0.586685           
         O11       1.0000    0.37782   0.99277   0.49231   Biso      1.000     O          -0.667875           
         O12       1.0000    0.28220   0.68347   0.39097   Biso      1.000     O          -0.643498           
         O13       1.0000    0.23466   0.63807   0.50949   Biso      1.000     O          -0.636902           
         O14       1.0000    0.47637   0.87463   0.52432   Biso      1.000     O          -0.643705           
         O15       1.0000    0.55694   0.95973   0.40461   Biso      1.000     O          -0.654854           
         O16       1.0000    0.96155   0.40461   0.63566   Biso      1.000     O          -0.656528           
         O17       1.0000    0.40279   0.36434   0.04027   Biso      1.000     O          -0.655741           
         O18       1.0000    0.17590   0.40660   0.51110   Biso      1.000     O          -0.576138           
         O19       1.0000    0.12987   0.50769   0.48508   Biso      1.000     O          -0.659975           
         O20       1.0000    0.60174   0.60105   0.87463   Biso      1.000     O          -0.646395           
         O21       1.0000    0.59659   0.85244   0.63807   Biso      1.000     O          -0.640478           
         O22       1.0000    0.59873   0.92556   0.68347   Biso      1.000     O          -0.646282           
         O23       1.0000    0.38505   0.51492   0.99277   Biso      1.000     O          -0.659737           
         O24       1.0000    0.31300   0.48890   0.91770   Biso      1.000     O          -0.575485           
         O25       1.0000    0.87013   0.49231   0.51492   Biso      1.000     O          -0.659975           
         O26       1.0000    0.52363   0.12537   0.47568   Biso      1.000     O          -0.643705           
         O27       1.0000    0.76534   0.36193   0.49051   Biso      1.000     O          -0.636902           
         O28       1.0000    0.71780   0.31653   0.60903   Biso      1.000     O          -0.643498           
         O29       1.0000    0.62218   0.00723   0.50769   Biso      1.000     O          -0.667875           
         O30       1.0000    0.76930   0.08230   0.40660   Biso      1.000     O          -0.586685           
         O31       1.0000    0.03845   0.59539   0.36434   Biso      1.000     O          -0.656528           
         O32       1.0000    0.99931   0.47568   0.39895   Biso      1.000     O          -0.644127           
         O33       1.0000    0.25585   0.49051   0.14756   Biso      1.000     O          -0.636987           
         O34       1.0000    0.32683   0.60903   0.07444   Biso      1.000     O          -0.645207           
         O35       1.0000    0.82410   0.59340   0.48890   Biso      1.000     O          -0.576138           
         O36       1.0000    0.44306   0.04027   0.59539   Biso      1.000     O          -0.654854 