
##########################################################################
#               Crystallographic Information Format file
#               Produced by PyCifRW module
#
#  This is a CIF file.  CIF has been adopted by the International
#  Union of Crystallography as the standard for data archiving and
#  transmission.
#
#  For information on this file format, follow the CIF links at
#  http://www.iucr.org
##########################################################################

data_image0

_cell_length_a                          10.4157
_cell_length_b                          11.2176
_cell_length_c                          11.806
_cell_angle_alpha                       93.298
_cell_angle_beta                        109.635
_cell_angle_gamma                       106.949
_symmetry_space_group_name_H-M          'P 1'
_symmetry_int_tables_number             1
loop_
  _symmetry_equiv_pos_as_xyz
         'x, y, z' 
loop_
  _atom_site_label
  _atom_site_occupancy
  _atom_site_fract_x
  _atom_site_fract_y
  _atom_site_fract_z
  _atom_site_thermal_displace_type
  _atom_site_B_iso_or_equiv
  _atom_site_type_symbol
  _atom_site_charge
         C1        1.0000    0.50920   0.06860   0.10430   Biso      1.000     C          -0.118795           
         C2        1.0000    0.52780   0.94820   0.10800   Biso      1.000     C          0.178666  
         C3        1.0000    0.38000   0.66840   0.59380   Biso      1.000     C          0.019521  
         C4        1.0000    0.48690   0.12070   0.99590   Biso      1.000     C          -0.067739           
         C5        1.0000    0.43700   0.71850   0.51290   Biso      1.000     C          0.311721  
         C6        1.0000    0.52100   0.56980   0.59310   Biso      1.000     C          0.248507  
         C7        1.0000    0.47470   0.24990   0.00020   Biso      1.000     C          0.610086  
         C8        1.0000    0.90760   0.88360   0.42470   Biso      1.000     C          -0.056272           
         C9        1.0000    0.42500   0.82000   0.43700   Biso      1.000     C          -0.56209  
         C10       1.0000    0.10150   0.57580   0.10700   Biso      1.000     C          0.172689  
         C11       1.0000    0.14340   0.50120   0.03950   Biso      1.000     C          -0.048048           
         C12       1.0000    0.57500   0.18000   0.56300   Biso      1.000     C          -0.562087           
         C13       1.0000    0.29650   0.50480   0.07900   Biso      1.000     C          0.592036  
         C14       1.0000    0.04000   0.94210   0.41840   Biso      1.000     C          0.188046  
         C15       1.0000    0.86740   0.94160   0.50690   Biso      1.000     C          -0.120325           
         C16       1.0000    0.04260   0.42490   0.93430   Biso      1.000     C          -0.12398  
         C17       1.0000    0.49080   0.93140   0.89570   Biso      1.000     C          -0.118797           
         C18       1.0000    0.80520   0.76010   0.34980   Biso      1.000     C          0.565727  
         C19       1.0000    0.52530   0.75010   0.99980   Biso      1.000     C          0.610075  
         C20       1.0000    0.47900   0.43020   0.40690   Biso      1.000     C          0.248514  
         C21       1.0000    0.56300   0.28150   0.48710   Biso      1.000     C          0.311711  
         C22       1.0000    0.62000   0.33160   0.40620   Biso      1.000     C          0.019552  
         C23       1.0000    0.19480   0.23990   0.65020   Biso      1.000     C          0.565731  
         C24       1.0000    0.51310   0.87930   0.00410   Biso      1.000     C          -0.067732           
         C25       1.0000    0.13260   0.05840   0.49310   Biso      1.000     C          -0.120328           
         C26       1.0000    0.09240   0.11640   0.57530   Biso      1.000     C          -0.056271           
         C27       1.0000    0.96000   0.05790   0.58160   Biso      1.000     C          0.188043  
         C28       1.0000    0.70350   0.49520   0.92100   Biso      1.000     C          0.59204   
         C29       1.0000    0.85660   0.49880   0.96050   Biso      1.000     C          -0.048062           
         C30       1.0000    0.89850   0.42420   0.89300   Biso      1.000     C          0.172697  
         C31       1.0000    0.95740   0.57510   0.06570   Biso      1.000     C          -0.123973           
         C32       1.0000    0.47220   0.05180   0.89200   Biso      1.000     C          0.178649  
         Eu1       1.0000    0.60728   0.53462   0.18282   Biso      1.000     Eu          1.295139  
         Eu2       1.0000    0.39272   0.46538   0.81718   Biso      1.000     Eu          1.295134  
         H1        1.0000    0.06910   0.37250   0.88900   Biso      1.000     H          0.150994  
         H2        1.0000    0.68830   0.30470   0.38750   Biso      1.000     H          0.104387  
         H3        1.0000    0.51170   0.11370   0.17410   Biso      1.000     H          0.138965  
         H4        1.0000    0.77830   0.90350   0.51290   Biso      1.000     H          0.149716  
         H5        1.0000    0.42550   0.48490   0.39160   Biso      1.000     H          0.092534  
         H6        1.0000    0.51970   0.17880   0.61410   Biso      1.000     H          0.18659   
         H7        1.0000    0.48030   0.82120   0.38590   Biso      1.000     H          0.186593  
         H8        1.0000    0.53790   0.09900   0.51060   Biso      1.000     H          0.174443  
         H9        1.0000    0.67420   0.19580   0.61330   Biso      1.000     H          0.173315  
         H10       1.0000    0.22170   0.09650   0.48710   Biso      1.000     H          0.149715  
         H11       1.0000    0.32580   0.80420   0.38670   Biso      1.000     H          0.173316  
         H12       1.0000    0.46210   0.90100   0.48940   Biso      1.000     H          0.174442  
         H13       1.0000    0.93090   0.62750   0.11100   Biso      1.000     H          0.150994  
         H14       1.0000    0.57450   0.51510   0.60840   Biso      1.000     H          0.092529  
         H15       1.0000    0.31170   0.69530   0.61250   Biso      1.000     H          0.104385  
         H16       1.0000    0.48830   0.88630   0.82590   Biso      1.000     H          0.138969  
         N1        1.0000    0.89100   0.13200   0.62900   Biso      1.000     N          -0.174669           
         N2        1.0000    0.79400   0.34200   0.78100   Biso      1.000     N          -0.148904           
         N3        1.0000    0.55700   0.90700   0.22500   Biso      1.000     N          -0.150726           
         N4        1.0000    0.42640   0.57720   0.64600   Biso      1.000     N          -0.331535           
         N5        1.0000    0.52740   0.65280   0.51470   Biso      1.000     N          -0.287706           
         N6        1.0000    0.57360   0.42280   0.35400   Biso      1.000     N          -0.331535           
         N7        1.0000    0.10900   0.86800   0.37100   Biso      1.000     N          -0.174674           
         N8        1.0000    0.20600   0.65800   0.21900   Biso      1.000     N          -0.148914           
         N9        1.0000    0.47260   0.34720   0.48530   Biso      1.000     N          -0.287681           
         N10       1.0000    0.44300   0.09300   0.77500   Biso      1.000     N          -0.150645           
         O1        1.0000    0.34210   0.47550   0.99570   Biso      1.000     O          -0.622723           
         O2        1.0000    0.69390   0.70590   0.36190   Biso      1.000     O          -0.472969           
         O3        1.0000    0.84010   0.71140   0.26770   Biso      1.000     O          -0.504424           
         O4        1.0000    0.37390   0.53280   0.18800   Biso      1.000     O          -0.509466           
         O5        1.0000    0.56830   0.71710   0.10090   Biso      1.000     O          -0.471297           
         O6        1.0000    0.49160   0.68440   0.89840   Biso      1.000     O          -0.581394           
         O7        1.0000    0.65790   0.52450   0.00430   Biso      1.000     O          -0.62273  
         O8        1.0000    0.62610   0.46720   0.81200   Biso      1.000     O          -0.509464           
         O9        1.0000    0.30610   0.29410   0.63810   Biso      1.000     O          -0.472974           
         O10       1.0000    0.15990   0.28860   0.73230   Biso      1.000     O          -0.504429           
         O11       1.0000    0.50840   0.31560   0.10160   Biso      1.000     O          -0.581421           
         O12       1.0000    0.43170   0.28290   0.89910   Biso      1.000     O          -0.471393 