
##########################################################################
#               Crystallographic Information Format file
#               Produced by PyCifRW module
#
#  This is a CIF file.  CIF has been adopted by the International
#  Union of Crystallography as the standard for data archiving and
#  transmission.
#
#  For information on this file format, follow the CIF links at
#  http://www.iucr.org
##########################################################################

data_image0

_cell_length_a                          10.4361
_cell_length_b                          11.2002
_cell_length_c                          11.7349
_cell_angle_alpha                       93.473
_cell_angle_beta                        110.054
_cell_angle_gamma                       106.436
_symmetry_space_group_name_H-M          'P 1'
_symmetry_int_tables_number             1
loop_
  _symmetry_equiv_pos_as_xyz
         'x, y, z' 
loop_
  _atom_site_label
  _atom_site_occupancy
  _atom_site_fract_x
  _atom_site_fract_y
  _atom_site_fract_z
  _atom_site_thermal_displace_type
  _atom_site_B_iso_or_equiv
  _atom_site_type_symbol
  _atom_site_charge
         C1        1.0000    0.07100   0.28600   0.98800   Biso      1.000     C          0.189877  
         C2        1.0000    0.97300   0.42100   0.90600   Biso      1.000     C          0.27134899999999995           
         C3        1.0000    0.79690   0.50950   0.57990   Biso      1.000     C          0.595016  
         C4        1.0000    0.13200   0.33700   0.90700   Biso      1.000     C          0.027041000000000003          
         C5        1.0000    0.06300   0.16800   0.04400   Biso      1.000     C          -0.050608           
         C6        1.0000    0.86800   0.66300   0.09300   Biso      1.000     C          0.027039999999999998          
         C7        1.0000    0.92900   0.71400   0.01200   Biso      1.000     C          0.189878  
         C8        1.0000    0.02700   0.57900   0.09400   Biso      1.000     C          0.27134899999999995           
         C9        1.0000    0.02570   0.95070   0.60910   Biso      1.000     C          0.148419  
         C10       1.0000    0.99050   0.93090   0.39650   Biso      1.000     C          -0.130105           
         C11       1.0000    0.01500   0.87870   0.50340   Biso      1.000     C          -0.043354000000000004         
         C12       1.0000    0.02860   0.75080   0.49970   Biso      1.000     C          0.609341  
         C13       1.0000    0.54520   0.43030   0.43280   Biso      1.000     C          -0.13075  
         C14       1.0000    0.60190   0.57750   0.60980   Biso      1.000     C          0.21700100000000003           
         C15       1.0000    0.69000   0.24240   0.15060   Biso      1.000     C          0.541687  
         C16       1.0000    0.59020   0.11620   0.07290   Biso      1.000     C          -0.042897000000000005         
         C17       1.0000    0.62980   0.05660   0.99320   Biso      1.000     C          -0.12418199999999999          
         C18       1.0000    0.45860   0.06130   0.08260   Biso      1.000     C          0.21566   
         C19       1.0000    0.97430   0.04930   0.39090   Biso      1.000     C          0.148421  
         C20       1.0000    0.00950   0.06910   0.60350   Biso      1.000     C          -0.130106           
         C21       1.0000    0.64460   0.50410   0.53950   Biso      1.000     C          -0.060887000000000004         
         C22       1.0000    0.97140   0.24920   0.50030   Biso      1.000     C          0.609346  
         C23       1.0000    0.93700   0.83200   0.95600   Biso      1.000     C          -0.050608           
         C24       1.0000    0.31000   0.75760   0.84940   Biso      1.000     C          0.541691  
         C25       1.0000    0.98500   0.12130   0.49660   Biso      1.000     C          -0.043355           
         C26       1.0000    0.37020   0.94340   0.00680   Biso      1.000     C          -0.124198           
         C27       1.0000    0.54140   0.93870   0.91740   Biso      1.000     C          0.21565399999999998           
         C28       1.0000    0.20310   0.49050   0.42010   Biso      1.000     C          0.595017  
         C29       1.0000    0.40980   0.88380   0.92710   Biso      1.000     C          -0.042881           
         C30       1.0000    0.35540   0.49590   0.46050   Biso      1.000     C          -0.060907           
         C31       1.0000    0.45480   0.56970   0.56720   Biso      1.000     C          -0.13072999999999999          
         C32       1.0000    0.39810   0.42250   0.39020   Biso      1.000     C          0.217007  
         Eu1       1.0000    0.89255   0.46542   0.31625   Biso      1.000     Eu          1.293396  
         Eu2       1.0000    0.10745   0.53458   0.68375   Biso      1.000     Eu          1.293398  
         H1        1.0000    0.09410   0.53690   0.11880   Biso      1.000     H          0.09765900000000001           
         H2        1.0000    0.71880   0.09500   0.98830   Biso      1.000     H          0.151747  
         H3        1.0000    0.84360   0.84500   0.92990   Biso      1.000     H          0.092458  
         H4        1.0000    0.92540   0.75720   0.80260   Biso      1.000     H          0.378252  
         H5        1.0000    0.00640   0.90470   0.01750   Biso      1.000     H          0.121459  
         H6        1.0000    0.28120   0.90500   0.01170   Biso      1.000     H          0.151749  
         H7        1.0000    0.57470   0.38250   0.38540   Biso      1.000     H          0.14918399999999998           
         H8        1.0000    0.01510   0.11570   0.67440   Biso      1.000     H          0.12881900000000002           
         H9        1.0000    0.20280   0.31450   0.88810   Biso      1.000     H          0.11555   
         H10       1.0000    0.42530   0.61750   0.61460   Biso      1.000     H          0.14918299999999998           
         H11       1.0000    0.98490   0.88430   0.32560   Biso      1.000     H          0.12881900000000002           
         H12       1.0000    0.99360   0.09530   0.98250   Biso      1.000     H          0.121458  
         H13       1.0000    0.15640   0.15500   0.07010   Biso      1.000     H          0.09245700000000001           
         H14       1.0000    0.90590   0.46310   0.88120   Biso      1.000     H          0.09765700000000001           
         H15       1.0000    0.79720   0.68550   0.11190   Biso      1.000     H          0.11555   
         H16       1.0000    0.07460   0.24280   0.19740   Biso      1.000     H          0.378251  
         N1        1.0000    0.41500   0.12400   0.15100   Biso      1.000     N          -0.193967           
         N2        1.0000    0.69600   0.65900   0.71200   Biso      1.000     N          -0.23540100000000003          
         N3        1.0000    0.03400   0.90400   0.72300   Biso      1.000     N          -0.056824           
         N4        1.0000    0.97900   0.34700   0.99400   Biso      1.000     N          -0.315139           
         N5        1.0000    0.30400   0.34100   0.28800   Biso      1.000     N          -0.23540300000000003          
         N6        1.0000    0.58500   0.87600   0.84900   Biso      1.000     N          -0.193969           
         N7        1.0000    0.96600   0.09600   0.27700   Biso      1.000     N          -0.056824           
         N8        1.0000    0.07450   0.42520   0.85790   Biso      1.000     N          -0.334327           
         N9        1.0000    0.92550   0.57480   0.14210   Biso      1.000     N          -0.33433  
         N10       1.0000    0.02100   0.65300   0.00600   Biso      1.000     N          -0.315136           
         O1        1.0000    0.65930   0.29380   0.23060   Biso      1.000     O          -0.460662           
         O2        1.0000    0.84490   0.48110   0.49720   Biso      1.000     O          -0.627839           
         O3        1.0000    0.87560   0.54040   0.69000   Biso      1.000     O          -0.512517           
         O4        1.0000    0.97900   0.82200   0.85100   Biso      1.000     O          -0.394291           
         O5        1.0000    0.99210   0.68450   0.39790   Biso      1.000     O          -0.5875199999999999           
         O6        1.0000    0.02100   0.17800   0.14900   Biso      1.000     O          -0.394296           
         O7        1.0000    0.92620   0.28300   0.39790   Biso      1.000     O          -0.540068           
         O8        1.0000    0.00790   0.31550   0.60210   Biso      1.000     O          -0.5875239999999999           
         O9        1.0000    0.12440   0.45960   0.31000   Biso      1.000     O          -0.51251  
         O10       1.0000    0.15510   0.51890   0.50280   Biso      1.000     O          -0.627835           
         O11       1.0000    0.34070   0.70620   0.76940   Biso      1.000     O          -0.46068000000000003          
         O12       1.0000    0.19120   0.70720   0.86160   Biso      1.000     O          -0.502583           
         O13       1.0000    0.80880   0.29280   0.13840   Biso      1.000     O          -0.502568           
         O14       1.0000    0.07380   0.71700   0.60210   Biso      1.000     O          -0.54006 