
##########################################################################
#               Crystallographic Information Format file
#               Produced by PyCifRW module
#
#  This is a CIF file.  CIF has been adopted by the International
#  Union of Crystallography as the standard for data archiving and
#  transmission.
#
#  For information on this file format, follow the CIF links at
#  http://www.iucr.org
##########################################################################

data_image0

_cell_length_a                          10.4369
_cell_length_b                          11.2951
_cell_length_c                          12.7861
_cell_angle_alpha                       101.639
_cell_angle_beta                        111.064
_cell_angle_gamma                       98.473
_symmetry_space_group_name_H-M          'P 1'
_symmetry_int_tables_number             1
loop_
  _symmetry_equiv_pos_as_xyz
         'x, y, z' 
loop_
  _atom_site_label
  _atom_site_occupancy
  _atom_site_fract_x
  _atom_site_fract_y
  _atom_site_fract_z
  _atom_site_thermal_displace_type
  _atom_site_B_iso_or_equiv
  _atom_site_type_symbol
  _atom_site_charge
         C1        1.0000    0.69680   0.22670   0.66670   Biso      1.000     C          0.573419  
         C2        1.0000    0.39380   0.93800   0.52000   Biso      1.000     C          -0.095799           
         C3        1.0000    0.04480   0.96910   0.10460   Biso      1.000     C          0.183237  
         C4        1.0000    0.51110   0.95180   0.39680   Biso      1.000     C          0.186271  
         C5        1.0000    0.95990   0.91030   0.89870   Biso      1.000     C          -0.113484           
         C6        1.0000    0.00460   0.87690   0.00000   Biso      1.000     C          -0.054611           
         C7        1.0000    0.00920   0.74620   0.00020   Biso      1.000     C          0.624473  
         C8        1.0000    0.80110   0.52020   0.07470   Biso      1.000     C          0.604506  
         C9        1.0000    0.64320   0.50910   0.03710   Biso      1.000     C          -0.048058           
         C10       1.0000    0.59130   0.57150   0.10980   Biso      1.000     C          0.183805  
         C11       1.0000    0.55440   0.43970   0.92960   Biso      1.000     C          -0.111266           
         C12       1.0000    0.44560   0.56030   0.07040   Biso      1.000     C          -0.111589           
         C13       1.0000    0.40870   0.42850   0.89020   Biso      1.000     C          0.183171  
         C14       1.0000    0.35680   0.49090   0.96290   Biso      1.000     C          -0.047599           
         C15       1.0000    0.19890   0.47980   0.92530   Biso      1.000     C          0.604597  
         C16       1.0000    0.99080   0.25380   0.99980   Biso      1.000     C          0.624431  
         C17       1.0000    0.99540   0.12310   0.00000   Biso      1.000     C          -0.054781           
         C18       1.0000    0.04010   0.08970   0.10130   Biso      1.000     C          -0.113383           
         C19       1.0000    0.48890   0.04820   0.60320   Biso      1.000     C          0.186059  
         C20       1.0000    0.95520   0.03090   0.89540   Biso      1.000     C          0.183419  
         C21       1.0000    0.60620   0.06200   0.48000   Biso      1.000     C          -0.095836           
         C22       1.0000    0.59260   0.10790   0.58080   Biso      1.000     C          -0.053215           
         C23       1.0000    0.40740   0.89210   0.41920   Biso      1.000     C          -0.053277           
         C24       1.0000    0.30320   0.77330   0.33330   Biso      1.000     C          0.573467  
         Eu1       1.0000    0.89226   0.44818   0.82890   Biso      1.000     Eu          1.391481  
         Eu2       1.0000    0.10774   0.55182   0.17110   Biso      1.000     Eu          1.391535  
         H1        1.0000    0.67890   0.10330   0.46520   Biso      1.000     H          0.152885  
         H2        1.0000    0.06870   0.15090   0.17130   Biso      1.000     H          0.144814  
         H3        1.0000    0.40940   0.60180   0.11970   Biso      1.000     H          0.146103  
         H4        1.0000    0.59060   0.39820   0.88030   Biso      1.000     H          0.146167  
         H5        1.0000    0.32110   0.89670   0.53480   Biso      1.000     H          0.152889  
         H6        1.0000    0.93130   0.84910   0.82870   Biso      1.000     H          0.144809  
         N1        1.0000    0.06300   0.94600   0.21590   Biso      1.000     N          -0.137177           
         N2        1.0000    0.52900   0.92400   0.28800   Biso      1.000     N          -0.152409           
         N3        1.0000    0.32300   0.36600   0.76820   Biso      1.000     N          -0.138577           
         N4        1.0000    0.93700   0.05400   0.78410   Biso      1.000     N          -0.137324           
         N5        1.0000    0.67700   0.63400   0.23180   Biso      1.000     N          -0.13897  
         N6        1.0000    0.47100   0.07600   0.71200   Biso      1.000     N          -0.15208  
         O1        1.0000    0.95000   0.27880   0.90350   Biso      1.000     O          -0.495041           
         O2        1.0000    0.03420   0.33270   0.09750   Biso      1.000     O          -0.620316           
         O3        1.0000    0.05000   0.72120   0.09650   Biso      1.000     O          -0.495696           
         O4        1.0000    0.96580   0.66730   0.90250   Biso      1.000     O          -0.620365           
         O5        1.0000    0.80060   0.27430   0.65120   Biso      1.000     O          -0.54663  
         O6        1.0000    0.19940   0.72570   0.34880   Biso      1.000     O          -0.546835           
         O7        1.0000    0.88120   0.56290   0.17980   Biso      1.000     O          -0.484706           
         O8        1.0000    0.11880   0.43710   0.82020   Biso      1.000     O          -0.486048           
         O9        1.0000    0.15250   0.51420   0.00180   Biso      1.000     O          -0.639316           
         O10       1.0000    0.32510   0.72450   0.24610   Biso      1.000     O          -0.498903           
         O11       1.0000    0.67490   0.27550   0.75390   Biso      1.000     O          -0.499108           
         O12       1.0000    0.84750   0.48580   0.99820   Biso      1.000     O          -0.639142 