
##########################################################################
#               Crystallographic Information Format file
#               Produced by PyCifRW module
#
#  This is a CIF file.  CIF has been adopted by the International
#  Union of Crystallography as the standard for data archiving and
#  transmission.
#
#  For information on this file format, follow the CIF links at
#  http://www.iucr.org
##########################################################################

data_image0

_cell_length_a                          8.3207
_cell_length_b                          13.112
_cell_length_c                          13.4253
_cell_angle_alpha                       71.716
_cell_angle_beta                        79.758
_cell_angle_gamma                       88.055
_symmetry_space_group_name_H-M          'P 1'
_symmetry_int_tables_number             1
loop_
  _symmetry_equiv_pos_as_xyz
         'x, y, z' 
loop_
  _atom_site_label
  _atom_site_occupancy
  _atom_site_fract_x
  _atom_site_fract_y
  _atom_site_fract_z
  _atom_site_thermal_displace_type
  _atom_site_B_iso_or_equiv
  _atom_site_type_symbol
  _atom_site_charge
         C1        1.0000    0.84950   0.15783   0.35274   Biso      1.000     C          -0.17188900000000001          
         C2        1.0000    0.26790   0.93470   0.12708   Biso      1.000     C          0.627976  
         C3        1.0000    0.07840   0.73047   0.28536   Biso      1.000     C          0.648134  
         C4        1.0000    0.25130   0.73434   0.22559   Biso      1.000     C          -0.368004           
         C5        1.0000    0.34680   0.83904   0.19916   Biso      1.000     C          -0.057526           
         C6        1.0000    0.52080   0.82951   0.14258   Biso      1.000     C          -0.356564           
         C7        1.0000    0.62530   0.75083   0.21104   Biso      1.000     C          0.649648  
         C8        1.0000    0.57570   0.58687   0.01597   Biso      1.000     C          -0.114074           
         C9        1.0000    0.46860   0.51757   0.89598   Biso      1.000     C          -0.11792799999999999          
         C10       1.0000    0.18790   0.54120   0.72421   Biso      1.000     C          0.10592   
         C11       1.0000    0.65200   0.67261   0.82839   Biso      1.000     C          -0.16754000000000002          
         C12       1.0000    0.78090   0.58258   0.69267   Biso      1.000     C          -0.181836           
         C13       1.0000    0.68320   0.66249   0.71792   Biso      1.000     C          0.16672599999999999           
         C14       1.0000    0.61410   0.73367   0.63732   Biso      1.000     C          -0.201383           
         C15       1.0000    0.64210   0.72301   0.53666   Biso      1.000     C          0.10327599999999999           
         C16       1.0000    0.04330   0.10945   0.47279   Biso      1.000     C          -0.117778           
         C17       1.0000    0.91050   0.97395   0.43086   Biso      1.000     C          -0.111176           
         C18       1.0000    0.72250   0.39275   0.45629   Biso      1.000     C          0.085893  
         C19       1.0000    0.75290   0.28871   0.45652   Biso      1.000     C          -0.18523  
         C20       1.0000    0.80410   0.57699   0.59072   Biso      1.000     C          0.084454  
         C21       1.0000    0.81550   0.26882   0.36162   Biso      1.000     C          0.168327  
         C22       1.0000    0.15660   0.64315   0.73021   Biso      1.000     C          -0.211394           
         C23       1.0000    0.24710   0.71129   0.54348   Biso      1.000     C          -0.18523199999999998          
         C24       1.0000    0.73210   0.06530   0.87292   Biso      1.000     C          0.627976  
         C25       1.0000    0.92160   0.26953   0.71464   Biso      1.000     C          0.648134  
         C26       1.0000    0.74870   0.26566   0.77441   Biso      1.000     C          -0.368004           
         C27       1.0000    0.65320   0.16096   0.80084   Biso      1.000     C          -0.057526           
         C28       1.0000    0.47920   0.17049   0.85742   Biso      1.000     C          -0.356564           
         C29       1.0000    0.37470   0.24917   0.78896   Biso      1.000     C          0.649648  
         C30       1.0000    0.42430   0.41313   0.98403   Biso      1.000     C          -0.114074           
         C31       1.0000    0.53140   0.48243   0.10402   Biso      1.000     C          -0.11792799999999999          
         C32       1.0000    0.18450   0.73118   0.63838   Biso      1.000     C          0.168327  
         C33       1.0000    0.34800   0.32739   0.17161   Biso      1.000     C          -0.16754000000000002          
         C34       1.0000    0.21910   0.41742   0.30733   Biso      1.000     C          -0.181836           
         C35       1.0000    0.31680   0.33751   0.28208   Biso      1.000     C          0.16672599999999999           
         C36       1.0000    0.38590   0.26633   0.36268   Biso      1.000     C          -0.201383           
         C37       1.0000    0.35790   0.27699   0.46334   Biso      1.000     C          0.103277  
         C38       1.0000    0.95670   0.89055   0.52721   Biso      1.000     C          -0.117778           
         C39       1.0000    0.08950   0.02605   0.56914   Biso      1.000     C          -0.111175           
         C40       1.0000    0.15050   0.84217   0.64726   Biso      1.000     C          -0.171888           
         C41       1.0000    0.27750   0.60725   0.54371   Biso      1.000     C          0.085896  
         C42       1.0000    0.19590   0.42301   0.40928   Biso      1.000     C          0.084454  
         C43       1.0000    0.84340   0.35685   0.26979   Biso      1.000     C          -0.21139899999999998          
         C44       1.0000    0.81210   0.45880   0.27579   Biso      1.000     C          0.10592599999999999           
         H1        1.0000    0.62470   0.43340   0.10490   Biso      1.000     H          0.070498  
         H2        1.0000    0.35280   0.85380   0.26710   Biso      1.000     H          0.100249  
         H3        1.0000    0.51460   0.80720   0.07940   Biso      1.000     H          0.142242  
         H4        1.0000    0.57520   0.90130   0.11680   Biso      1.000     H          0.145782  
         H5        1.0000    0.24980   0.29520   0.15990   Biso      1.000     H          0.12576099999999998           
         H6        1.0000    0.67210   0.62050   0.02820   Biso      1.000     H          0.107252  
         H7        1.0000    0.49180   0.50380   0.82640   Biso      1.000     H          0.094372  
         H8        1.0000    0.37530   0.56660   0.89510   Biso      1.000     H          0.070498  
         H9        1.0000    0.75020   0.70480   0.84010   Biso      1.000     H          0.12576199999999998           
         H10       1.0000    0.56030   0.72170   0.83420   Biso      1.000     H          0.095288  
         H11       1.0000    0.87180   0.52260   0.57430   Biso      1.000     H          0.09214299999999999           
         H12       1.0000    0.83110   0.53250   0.74550   Biso      1.000     H          0.132026  
         H13       1.0000    0.54770   0.78960   0.65140   Biso      1.000     H          0.130933  
         H14       1.0000    0.59400   0.77240   0.48230   Biso      1.000     H          0.09919   
         H15       1.0000    0.03180   0.17980   0.48590   Biso      1.000     H          0.095169  
         H16       1.0000    0.13110   0.11700   0.41040   Biso      1.000     H          0.07324   
         H17       1.0000    0.99710   0.98050   0.36810   Biso      1.000     H          0.09507   
         H18       1.0000    0.80760   0.95120   0.41570   Biso      1.000     H          0.098981  
         H19       1.0000    0.75250   0.13120   0.33420   Biso      1.000     H          0.119557  
         H20       1.0000    0.94190   0.16320   0.29350   Biso      1.000     H          0.09573999999999999           
         H21       1.0000    0.67850   0.40480   0.52190   Biso      1.000     H          0.09514600000000001           
         H22       1.0000    0.73120   0.23090   0.52130   Biso      1.000     H          0.138951  
         H23       1.0000    0.88400   0.34670   0.20290   Biso      1.000     H          0.133353  
         H24       1.0000    0.83410   0.51800   0.21220   Biso      1.000     H          0.10419500000000001           
         H25       1.0000    0.31220   0.67570   0.26850   Biso      1.000     H          0.131183  
         H26       1.0000    0.24750   0.71950   0.15810   Biso      1.000     H          0.14135999999999999           
         H27       1.0000    0.48370   0.63670   0.01660   Biso      1.000     H          0.08126   
         H28       1.0000    0.11600   0.65330   0.79710   Biso      1.000     H          0.133353  
         H29       1.0000    0.50820   0.49620   0.17360   Biso      1.000     H          0.094372  
         H30       1.0000    0.32790   0.37950   0.97180   Biso      1.000     H          0.107252  
         H31       1.0000    0.51630   0.36330   0.98340   Biso      1.000     H          0.08126   
         H32       1.0000    0.42480   0.09870   0.88320   Biso      1.000     H          0.145782  
         H33       1.0000    0.48540   0.19280   0.92060   Biso      1.000     H          0.142242  
         H34       1.0000    0.16590   0.48200   0.78780   Biso      1.000     H          0.104196  
         H35       1.0000    0.68780   0.32430   0.73150   Biso      1.000     H          0.131183  
         H36       1.0000    0.75250   0.28050   0.84190   Biso      1.000     H          0.14135999999999999           
         H37       1.0000    0.43970   0.27830   0.16580   Biso      1.000     H          0.095288  
         H38       1.0000    0.12820   0.47740   0.42570   Biso      1.000     H          0.09214299999999999           
         H39       1.0000    0.16890   0.46750   0.25450   Biso      1.000     H          0.132027  
         H40       1.0000    0.64720   0.14620   0.73290   Biso      1.000     H          0.100249  
         H41       1.0000    0.32150   0.59520   0.47810   Biso      1.000     H          0.09514600000000001           
         H42       1.0000    0.40600   0.22760   0.51770   Biso      1.000     H          0.09919   
         H43       1.0000    0.96820   0.82020   0.51410   Biso      1.000     H          0.095169  
         H44       1.0000    0.86890   0.88300   0.58960   Biso      1.000     H          0.07324   
         H45       1.0000    0.00290   0.01950   0.63190   Biso      1.000     H          0.09507   
         H46       1.0000    0.19240   0.04880   0.58430   Biso      1.000     H          0.098981  
         H47       1.0000    0.24750   0.86880   0.66580   Biso      1.000     H          0.119557  
         H48       1.0000    0.05810   0.83680   0.70650   Biso      1.000     H          0.09573999999999999           
         H49       1.0000    0.26880   0.76910   0.47870   Biso      1.000     H          0.138952  
         H50       1.0000    0.45230   0.21040   0.34860   Biso      1.000     H          0.130934  
         N1        1.0000    0.24790   0.52185   0.63255   Biso      1.000     N          -0.229699           
         N2        1.0000    0.61270   0.56867   0.91158   Biso      1.000     N          -0.153846           
         N3        1.0000    0.73510   0.64515   0.51293   Biso      1.000     N          -0.229277           
         N4        1.0000    0.88870   0.07907   0.44947   Biso      1.000     N          -0.155148           
         N5        1.0000    0.26490   0.35485   0.48707   Biso      1.000     N          -0.229278           
         N6        1.0000    0.38730   0.43133   0.08842   Biso      1.000     N          -0.153847           
         N7        1.0000    0.11130   0.92093   0.55053   Biso      1.000     N          -0.155148           
         N8        1.0000    0.75210   0.47815   0.36745   Biso      1.000     N          -0.229699           
         O1        1.0000    0.25364   0.28773   0.83232   Biso      1.000     O          -0.587992           
         O2        1.0000    0.41065   0.27251   0.68792   Biso      1.000     O          -0.572631           
         O3        1.0000    0.98976   0.36295   0.68227   Biso      1.000     O          -0.589457           
         O4        1.0000    0.29648   0.02672   0.13089   Biso      1.000     O          -0.578242           
         O5        1.0000    0.99063   0.18915   0.69923   Biso      1.000     O          -0.5748409999999999           
         O6        1.0000    0.18361   0.91482   0.06593   Biso      1.000     O          -0.560641           
         O7        1.0000    0.70352   0.97328   0.86911   Biso      1.000     O          -0.578242           
         O8        1.0000    0.01024   0.63705   0.31773   Biso      1.000     O          -0.589457           
         O9        1.0000    0.58935   0.72749   0.31208   Biso      1.000     O          -0.572631           
         O10       1.0000    0.74636   0.71227   0.16768   Biso      1.000     O          -0.587992           
         O11       1.0000    0.81639   0.08518   0.93407   Biso      1.000     O          -0.560641           
         O12       1.0000    0.00937   0.81085   0.30077   Biso      1.000     O          -0.5748409999999999           
         Zn1       1.0000    0.00000   0.00000   0.00000   Biso      1.000     Zn          0.969924  
         Zn2       1.0000    0.22563   0.36301   0.63916   Biso      1.000     Zn          0.729837  
         Zn3       1.0000    0.77437   0.63699   0.36084   Biso      1.000     Zn          0.7298359999999999 