
##########################################################################
#               Crystallographic Information Format file
#               Produced by PyCifRW module
#
#  This is a CIF file.  CIF has been adopted by the International
#  Union of Crystallography as the standard for data archiving and
#  transmission.
#
#  For information on this file format, follow the CIF links at
#  http://www.iucr.org
##########################################################################

data_image0

_cell_length_a                          9.267
_cell_length_b                          19.041
_cell_length_c                          8.292
_cell_angle_alpha                       90
_cell_angle_beta                        111.164
_cell_angle_gamma                       90
_symmetry_space_group_name_H-M          'P 1'
_symmetry_int_tables_number             1
loop_
  _symmetry_equiv_pos_as_xyz
         'x, y, z' 
loop_
  _atom_site_label
  _atom_site_occupancy
  _atom_site_fract_x
  _atom_site_fract_y
  _atom_site_fract_z
  _atom_site_thermal_displace_type
  _atom_site_B_iso_or_equiv
  _atom_site_type_symbol
  _atom_site_charge
         C1        1.0000    0.54210   0.06930   0.17360   Biso      1.000     C          -0.046981           
         C2        1.0000    0.04930   0.75880   0.56970   Biso      1.000     C          -0.10809500000000001          
         C3        1.0000    0.09800   0.68880   0.58600   Biso      1.000     C          -0.10564000000000001          
         C4        1.0000    0.01610   0.63690   0.63400   Biso      1.000     C          -0.016604           
         C5        1.0000    0.87430   0.65490   0.65430   Biso      1.000     C          -0.094112           
         C6        1.0000    0.82550   0.72460   0.63910   Biso      1.000     C          -0.105813           
         C7        1.0000    0.08220   0.56440   0.68380   Biso      1.000     C          0.580272  
         C8        1.0000    0.69740   0.06070   0.20680   Biso      1.000     C          -0.025419999999999998         
         C9        1.0000    0.91780   0.43560   0.31620   Biso      1.000     C          0.5802729999999999  
         C10       1.0000    0.45790   0.93070   0.82640   Biso      1.000     C          -0.046981           
         C11       1.0000    0.87140   0.64500   0.09560   Biso      1.000     C          0.588366  
         C12       1.0000    0.91250   0.72240   0.10070   Biso      1.000     C          -0.019025999999999998         
         C13       1.0000    0.04930   0.74120   0.06970   Biso      1.000     C          -0.108097           
         C14       1.0000    0.91250   0.77760   0.60070   Biso      1.000     C          -0.019027000000000002         
         C15       1.0000    0.09800   0.81120   0.08600   Biso      1.000     C          -0.10564000000000001          
         C16       1.0000    0.87430   0.84510   0.15430   Biso      1.000     C          -0.09411  
         C17       1.0000    0.82550   0.77540   0.13910   Biso      1.000     C          -0.105815           
         C18       1.0000    0.08220   0.93560   0.18380   Biso      1.000     C          0.580272  
         C19       1.0000    0.69740   0.43930   0.70680   Biso      1.000     C          -0.025428           
         C20       1.0000    0.54210   0.43070   0.67360   Biso      1.000     C          -0.046971           
         C21       1.0000    0.12860   0.14500   0.40440   Biso      1.000     C          0.588366  
         C22       1.0000    0.08750   0.22240   0.39930   Biso      1.000     C          -0.019025999999999998         
         C23       1.0000    0.95070   0.24120   0.43030   Biso      1.000     C          -0.108096           
         C24       1.0000    0.90200   0.31120   0.41400   Biso      1.000     C          -0.10564000000000001          
         C25       1.0000    0.98390   0.36310   0.36600   Biso      1.000     C          -0.016605           
         C26       1.0000    0.12570   0.34510   0.34570   Biso      1.000     C          -0.094112           
         C27       1.0000    0.17450   0.27540   0.36090   Biso      1.000     C          -0.105814           
         C28       1.0000    0.01610   0.86310   0.13400   Biso      1.000     C          -0.016606           
         C29       1.0000    0.87140   0.85500   0.59560   Biso      1.000     C          0.5883649999999999  
         C30       1.0000    0.30260   0.93930   0.79320   Biso      1.000     C          -0.025418           
         C31       1.0000    0.08750   0.27760   0.89930   Biso      1.000     C          -0.019025999999999998         
         C32       1.0000    0.95070   0.25880   0.93030   Biso      1.000     C          -0.108097           
         C33       1.0000    0.91780   0.06440   0.81620   Biso      1.000     C          0.5802729999999999  
         C34       1.0000    0.30260   0.56070   0.29320   Biso      1.000     C          -0.025426           
         C35       1.0000    0.90200   0.18880   0.91400   Biso      1.000     C          -0.10564000000000001          
         C36       1.0000    0.17450   0.22460   0.86090   Biso      1.000     C          -0.105814           
         C37       1.0000    0.12860   0.35500   0.90440   Biso      1.000     C          0.5883649999999999  
         C38       1.0000    0.98390   0.13690   0.86600   Biso      1.000     C          -0.016605           
         C39       1.0000    0.12570   0.15490   0.84570   Biso      1.000     C          -0.094112           
         C40       1.0000    0.45790   0.56930   0.32640   Biso      1.000     C          -0.04697  
         H1        1.0000    0.47070   0.40980   0.57610   Biso      1.000     H          0.133385  
         H2        1.0000    0.18570   0.12000   0.82240   Biso      1.000     H          0.117124  
         H3        1.0000    0.18660   0.82310   0.06440   Biso      1.000     H          0.118899  
         H4        1.0000    0.81340   0.17690   0.93560   Biso      1.000     H          0.118899  
         H5        1.0000    0.81430   0.88000   0.17760   Biso      1.000     H          0.117124  
         H6        1.0000    0.89400   0.29310   0.96120   Biso      1.000     H          0.12081700000000001           
         H7        1.0000    0.73390   0.76400   0.15480   Biso      1.000     H          0.120145  
         H8        1.0000    0.25120   0.92550   0.86580   Biso      1.000     H          0.134124  
         H9        1.0000    0.10600   0.70690   0.03880   Biso      1.000     H          0.12081700000000001           
         H10       1.0000    0.74880   0.42550   0.63420   Biso      1.000     H          0.134124  
         H11       1.0000    0.52930   0.59020   0.42390   Biso      1.000     H          0.133385  
         H12       1.0000    0.26610   0.26400   0.34520   Biso      1.000     H          0.120146  
         H13       1.0000    0.18570   0.38000   0.32240   Biso      1.000     H          0.117125  
         H14       1.0000    0.81340   0.32310   0.43560   Biso      1.000     H          0.118899  
         H15       1.0000    0.47070   0.09020   0.07610   Biso      1.000     H          0.13338699999999998           
         H16       1.0000    0.74880   0.07450   0.13420   Biso      1.000     H          0.134124  
         H17       1.0000    0.25120   0.57450   0.36580   Biso      1.000     H          0.134124  
         H18       1.0000    0.73390   0.73600   0.65480   Biso      1.000     H          0.120145  
         H19       1.0000    0.81430   0.62000   0.67760   Biso      1.000     H          0.117125  
         H20       1.0000    0.26610   0.23600   0.84520   Biso      1.000     H          0.120145  
         H21       1.0000    0.52930   0.90980   0.92390   Biso      1.000     H          0.13338699999999998           
         H22       1.0000    0.18660   0.67690   0.56440   Biso      1.000     H          0.118898  
         H23       1.0000    0.89400   0.20690   0.46120   Biso      1.000     H          0.12081700000000001           
         H24       1.0000    0.10600   0.79310   0.53880   Biso      1.000     H          0.12081700000000001           
         N1        1.0000    0.48800   0.54170   0.19110   Biso      1.000     N          -0.150039           
         N2        1.0000    0.23680   0.97090   0.63910   Biso      1.000     N          -0.143047           
         N3        1.0000    0.35140   0.98290   0.57680   Biso      1.000     N          -0.088139           
         N4        1.0000    0.48800   0.95830   0.69110   Biso      1.000     N          -0.15002000000000001          
         N5        1.0000    0.23680   0.52910   0.13910   Biso      1.000     N          -0.143049           
         N6        1.0000    0.35140   0.51710   0.07680   Biso      1.000     N          -0.088122           
         N7        1.0000    0.64860   0.01710   0.42320   Biso      1.000     N          -0.088157           
         N8        1.0000    0.51200   0.45830   0.80890   Biso      1.000     N          -0.15003699999999998          
         N9        1.0000    0.64860   0.48290   0.92320   Biso      1.000     N          -0.088141           
         N10       1.0000    0.51200   0.04170   0.30890   Biso      1.000     N          -0.150019           
         N11       1.0000    0.76320   0.47090   0.86090   Biso      1.000     N          -0.143031           
         N12       1.0000    0.76320   0.02910   0.36090   Biso      1.000     N          -0.143029           
         O1        1.0000    0.06060   0.39720   0.97020   Biso      1.000     O          -0.558508           
         O2        1.0000    0.01830   0.52070   0.75270   Biso      1.000     O          -0.574075           
         O3        1.0000    0.23280   0.37240   0.84080   Biso      1.000     O          -0.543089           
         O4        1.0000    0.78710   0.04960   0.83060   Biso      1.000     O          -0.538696           
         O5        1.0000    0.21290   0.54960   0.66940   Biso      1.000     O          -0.538697           
         O6        1.0000    0.98170   0.02070   0.74730   Biso      1.000     O          -0.5740729999999999           
         O7        1.0000    0.76720   0.87240   0.65920   Biso      1.000     O          -0.543088           
         O8        1.0000    0.93940   0.60280   0.02980   Biso      1.000     O          -0.558508           
         O9        1.0000    0.76720   0.62760   0.15920   Biso      1.000     O          -0.543089           
         O10       1.0000    0.21290   0.95040   0.16940   Biso      1.000     O          -0.538697           
         O11       1.0000    0.01830   0.97930   0.25270   Biso      1.000     O          -0.574074           
         O12       1.0000    0.98170   0.47930   0.24730   Biso      1.000     O          -0.574075           
         O13       1.0000    0.78710   0.45040   0.33060   Biso      1.000     O          -0.538697           
         O14       1.0000    0.23280   0.12760   0.34080   Biso      1.000     O          -0.543089           
         O15       1.0000    0.06060   0.10280   0.47020   Biso      1.000     O          -0.558508           
         O16       1.0000    0.93940   0.89720   0.52980   Biso      1.000     O          -0.558508           
         Zn1       1.0000    0.30240   0.46983   0.83751   Biso      1.000     Zn          0.756468  
         Zn2       1.0000    0.69760   0.53017   0.16249   Biso      1.000     Zn          0.75647   
         Zn3       1.0000    0.00000   0.50000   0.00000   Biso      1.000     Zn          0.895331  
         Zn4       1.0000    0.69760   0.96983   0.66249   Biso      1.000     Zn          0.756469  
         Zn5       1.0000    0.30240   0.03017   0.33751   Biso      1.000     Zn          0.756469  
         Zn6       1.0000    0.00000   0.00000   0.50000   Biso      1.000     Zn          0.895328 