
##########################################################################
#               Crystallographic Information Format file
#               Produced by PyCifRW module
#
#  This is a CIF file.  CIF has been adopted by the International
#  Union of Crystallography as the standard for data archiving and
#  transmission.
#
#  For information on this file format, follow the CIF links at
#  http://www.iucr.org
##########################################################################

data_image0

_cell_length_a                          9.1212
_cell_length_b                          18.8576
_cell_length_c                          8.1265
_cell_angle_alpha                       90
_cell_angle_beta                        111.963
_cell_angle_gamma                       90
_symmetry_space_group_name_H-M          'P 1'
_symmetry_int_tables_number             1
loop_
  _symmetry_equiv_pos_as_xyz
         'x, y, z' 
loop_
  _atom_site_label
  _atom_site_occupancy
  _atom_site_fract_x
  _atom_site_fract_y
  _atom_site_fract_z
  _atom_site_thermal_displace_type
  _atom_site_B_iso_or_equiv
  _atom_site_type_symbol
  _atom_site_charge
         C1        1.0000    0.53920   0.93080   0.67140   Biso      1.000     C          -0.047673           
         C2        1.0000    0.82790   0.27315   0.14390   Biso      1.000     C          -0.106035           
         C3        1.0000    0.87630   0.34289   0.15840   Biso      1.000     C          -0.094054           
         C4        1.0000    0.01740   0.36092   0.14060   Biso      1.000     C          -0.017049           
         C5        1.0000    0.10330   0.30868   0.09760   Biso      1.000     C          -0.106338           
         C6        1.0000    0.05430   0.23923   0.08110   Biso      1.000     C          -0.109442           
         C7        1.0000    0.08410   0.43374   0.18920   Biso      1.000     C          0.59043   
         C8        1.0000    0.69580   0.93970   0.70320   Biso      1.000     C          -0.029325           
         C9        1.0000    0.91590   0.56626   0.81080   Biso      1.000     C          0.590431  
         C10       1.0000    0.46080   0.06920   0.32860   Biso      1.000     C          -0.047672           
         C11       1.0000    0.87470   0.35624   0.60250   Biso      1.000     C          0.603055  
         C12       1.0000    0.91830   0.27962   0.60900   Biso      1.000     C          -0.020191           
         C13       1.0000    0.82790   0.22685   0.64390   Biso      1.000     C          -0.106034           
         C14       1.0000    0.91830   0.22038   0.10900   Biso      1.000     C          -0.02019  
         C15       1.0000    0.87630   0.15711   0.65840   Biso      1.000     C          -0.094054           
         C16       1.0000    0.10330   0.19132   0.59760   Biso      1.000     C          -0.106338           
         C17       1.0000    0.05430   0.26077   0.58110   Biso      1.000     C          -0.109441           
         C18       1.0000    0.08410   0.06626   0.68920   Biso      1.000     C          0.590431  
         C19       1.0000    0.69580   0.56030   0.20320   Biso      1.000     C          -0.029334           
         C20       1.0000    0.53920   0.56920   0.17140   Biso      1.000     C          -0.047661           
         C21       1.0000    0.12530   0.85624   0.89750   Biso      1.000     C          0.603055  
         C22       1.0000    0.08170   0.77962   0.89100   Biso      1.000     C          -0.020191           
         C23       1.0000    0.17210   0.72685   0.85610   Biso      1.000     C          -0.106034           
         C24       1.0000    0.12370   0.65711   0.84160   Biso      1.000     C          -0.094054           
         C25       1.0000    0.98260   0.63908   0.85940   Biso      1.000     C          -0.01705  
         C26       1.0000    0.89670   0.69132   0.90240   Biso      1.000     C          -0.106338           
         C27       1.0000    0.94570   0.76077   0.91890   Biso      1.000     C          -0.109441           
         C28       1.0000    0.01740   0.13908   0.64060   Biso      1.000     C          -0.01705  
         C29       1.0000    0.87470   0.14376   0.10250   Biso      1.000     C          0.603054  
         C30       1.0000    0.30420   0.06030   0.29680   Biso      1.000     C          -0.029322           
         C31       1.0000    0.08170   0.72038   0.39100   Biso      1.000     C          -0.020191           
         C32       1.0000    0.17210   0.77315   0.35610   Biso      1.000     C          -0.106034           
         C33       1.0000    0.91590   0.93374   0.31080   Biso      1.000     C          0.590431  
         C34       1.0000    0.30420   0.43970   0.79680   Biso      1.000     C          -0.02933  
         C35       1.0000    0.12370   0.84289   0.34160   Biso      1.000     C          -0.094054           
         C36       1.0000    0.94570   0.73923   0.41890   Biso      1.000     C          -0.109444           
         C37       1.0000    0.12530   0.64376   0.39750   Biso      1.000     C          0.603054  
         C38       1.0000    0.98260   0.86092   0.35940   Biso      1.000     C          -0.01705  
         C39       1.0000    0.89670   0.80868   0.40240   Biso      1.000     C          -0.106335           
         C40       1.0000    0.46080   0.43080   0.82860   Biso      1.000     C          -0.047661           
         H1        1.0000    0.46500   0.59070   0.07220   Biso      1.000     H          0.129679  
         H2        1.0000    0.80490   0.82070   0.42040   Biso      1.000     H          0.116727  
         H3        1.0000    0.81440   0.12200   0.68020   Biso      1.000     H          0.113081  
         H4        1.0000    0.18560   0.87800   0.31980   Biso      1.000     H          0.113081  
         H5        1.0000    0.19510   0.17930   0.57960   Biso      1.000     H          0.116727  
         H6        1.0000    0.26590   0.76140   0.34240   Biso      1.000     H          0.11714   
         H7        1.0000    0.11270   0.29540   0.55110   Biso      1.000     H          0.117229  
         H8        1.0000    0.25250   0.07460   0.37050   Biso      1.000     H          0.135598  
         H9        1.0000    0.73410   0.23860   0.65760   Biso      1.000     H          0.11714   
         H10       1.0000    0.74750   0.57460   0.12950   Biso      1.000     H          0.135598  
         H11       1.0000    0.53500   0.40930   0.92780   Biso      1.000     H          0.129679  
         H12       1.0000    0.88730   0.79540   0.94890   Biso      1.000     H          0.117229  
         H13       1.0000    0.80490   0.67930   0.92040   Biso      1.000     H          0.116727  
         H14       1.0000    0.18560   0.62200   0.81980   Biso      1.000     H          0.113081  
         H15       1.0000    0.46500   0.90930   0.57220   Biso      1.000     H          0.12968   
         H16       1.0000    0.74750   0.92540   0.62950   Biso      1.000     H          0.135598  
         H17       1.0000    0.25250   0.42540   0.87050   Biso      1.000     H          0.135598  
         H18       1.0000    0.11270   0.20460   0.05110   Biso      1.000     H          0.11723   
         H19       1.0000    0.19510   0.32070   0.07960   Biso      1.000     H          0.116727  
         H20       1.0000    0.88730   0.70460   0.44890   Biso      1.000     H          0.11723   
         H21       1.0000    0.53500   0.09070   0.42780   Biso      1.000     H          0.12968   
         H22       1.0000    0.81440   0.37800   0.18020   Biso      1.000     H          0.113081  
         H23       1.0000    0.26590   0.73860   0.84240   Biso      1.000     H          0.11714   
         H24       1.0000    0.73410   0.26140   0.15760   Biso      1.000     H          0.11714   
         N1        1.0000    0.48890   0.45855   0.69240   Biso      1.000     N          -0.144032           
         N2        1.0000    0.23890   0.02769   0.14160   Biso      1.000     N          -0.141774           
         N3        1.0000    0.35190   0.01622   0.07860   Biso      1.000     N          -0.074471           
         N4        1.0000    0.48890   0.04145   0.19240   Biso      1.000     N          -0.144003           
         N5        1.0000    0.23890   0.47231   0.64160   Biso      1.000     N          -0.141777           
         N6        1.0000    0.35190   0.48378   0.57860   Biso      1.000     N          -0.074443           
         N7        1.0000    0.64810   0.98378   0.92140   Biso      1.000     N          -0.074505           
         N8        1.0000    0.51110   0.54145   0.30760   Biso      1.000     N          -0.144027           
         N9        1.0000    0.64810   0.51622   0.42140   Biso      1.000     N          -0.074476           
         N10       1.0000    0.51110   0.95855   0.80760   Biso      1.000     N          -0.143999           
         N11       1.0000    0.76110   0.52769   0.35840   Biso      1.000     N          -0.141745           
         N12       1.0000    0.76110   0.97231   0.85840   Biso      1.000     N          -0.141742           
         O1        1.0000    0.05790   0.60235   0.46470   Biso      1.000     O          -0.561725           
         O2        1.0000    0.01700   0.47738   0.25290   Biso      1.000     O          -0.57121  
         O3        1.0000    0.22910   0.62633   0.33460   Biso      1.000     O          -0.544238           
         O4        1.0000    0.78570   0.94843   0.32640   Biso      1.000     O          -0.540054           
         O5        1.0000    0.21430   0.44843   0.17360   Biso      1.000     O          -0.540054           
         O6        1.0000    0.98300   0.97738   0.24710   Biso      1.000     O          -0.57121  
         O7        1.0000    0.77090   0.12633   0.16540   Biso      1.000     O          -0.544239           
         O8        1.0000    0.94210   0.39765   0.53530   Biso      1.000     O          -0.561724           
         O9        1.0000    0.77090   0.37367   0.66540   Biso      1.000     O          -0.544239           
         O10       1.0000    0.21430   0.05157   0.67360   Biso      1.000     O          -0.540054           
         O11       1.0000    0.01700   0.02262   0.75290   Biso      1.000     O          -0.57121  
         O12       1.0000    0.98300   0.52262   0.74710   Biso      1.000     O          -0.57121  
         O13       1.0000    0.78570   0.55157   0.82640   Biso      1.000     O          -0.540054           
         O14       1.0000    0.22910   0.87367   0.83460   Biso      1.000     O          -0.544238           
         O15       1.0000    0.05790   0.89765   0.96470   Biso      1.000     O          -0.561724           
         O16       1.0000    0.94210   0.10235   0.03530   Biso      1.000     O          -0.561724           
         Zn1       1.0000    0.30126   0.52966   0.33651   Biso      1.000     Zn          0.744028  
         Zn2       1.0000    0.69874   0.47034   0.66349   Biso      1.000     Zn          0.744032  
         Zn3       1.0000    0.00000   0.50000   0.50000   Biso      1.000     Zn          0.881216  
         Zn4       1.0000    0.69874   0.02966   0.16349   Biso      1.000     Zn          0.744031  
         Zn5       1.0000    0.30126   0.97034   0.83651   Biso      1.000     Zn          0.744027  
         Zn6       1.0000    0.00000   0.00000   0.00000   Biso      1.000     Zn          0.881214 