
##########################################################################
#               Crystallographic Information Format file
#               Produced by PyCifRW module
#
#  This is a CIF file.  CIF has been adopted by the International
#  Union of Crystallography as the standard for data archiving and
#  transmission.
#
#  For information on this file format, follow the CIF links at
#  http://www.iucr.org
##########################################################################

data_image0

_cell_length_a                          16.9065
_cell_length_b                          16.9065
_cell_length_c                          14.7154
_cell_angle_alpha                       90
_cell_angle_beta                        90
_cell_angle_gamma                       120
_symmetry_space_group_name_H-M          'P 1'
_symmetry_int_tables_number             1
loop_
  _symmetry_equiv_pos_as_xyz
         'x, y, z' 
loop_
  _atom_site_label
  _atom_site_occupancy
  _atom_site_fract_x
  _atom_site_fract_y
  _atom_site_fract_z
  _atom_site_thermal_displace_type
  _atom_site_B_iso_or_equiv
  _atom_site_type_symbol
  _atom_site_charge
         C1        1.0000    0.41480   0.96240   0.03000   Biso      1.000     C          0.028133  
         C2        1.0000    0.46295   0.53705   0.05970   Biso      1.000     C          -0.094962           
         C3        1.0000    0.96240   0.41480   0.97000   Biso      1.000     C          0.028124  
         C4        1.0000    0.15030   0.57515   0.37150   Biso      1.000     C          0.648457  
         C5        1.0000    0.07410   0.53705   0.44030   Biso      1.000     C          -0.094968           
         C6        1.0000    0.42485   0.84970   0.37150   Biso      1.000     C          0.648464  
         C7        1.0000    0.46295   0.92590   0.44030   Biso      1.000     C          -0.094973           
         C8        1.0000    0.45240   0.03760   0.97000   Biso      1.000     C          0.028127  
         C9        1.0000    0.42485   0.57515   0.37150   Biso      1.000     C          0.648448  
         C10       1.0000    0.46295   0.53705   0.44030   Biso      1.000     C          -0.094964           
         C11       1.0000    0.84970   0.42485   0.87150   Biso      1.000     C          0.64844   
         C12       1.0000    0.92590   0.46295   0.94030   Biso      1.000     C          -0.094933           
         C13       1.0000    0.41480   0.45240   0.47000   Biso      1.000     C          0.028165  
         C14       1.0000    0.57515   0.15030   0.87150   Biso      1.000     C          0.648433  
         C15       1.0000    0.53705   0.07410   0.94030   Biso      1.000     C          -0.094929           
         C16       1.0000    0.57515   0.42485   0.87150   Biso      1.000     C          0.648453  
         C17       1.0000    0.53705   0.46295   0.94030   Biso      1.000     C          -0.094966           
         C18       1.0000    0.03760   0.58520   0.47000   Biso      1.000     C          0.028163  
         C19       1.0000    0.23800   0.18900   0.75000   Biso      1.000     C          -0.126754           
         C20       1.0000    0.33360   0.23390   0.75000   Biso      1.000     C          0.167553  
         C21       1.0000    0.08860   0.04430   0.75000   Biso      1.000     C          0.382987  
         C22       1.0000    0.81100   0.04900   0.75000   Biso      1.000     C          -0.126751           
         C23       1.0000    0.76610   0.09970   0.75000   Biso      1.000     C          0.167543  
         C24       1.0000    0.45240   0.41480   0.97000   Biso      1.000     C          0.028156  
         C25       1.0000    0.42485   0.57515   0.12850   Biso      1.000     C          0.648447  
         C26       1.0000    0.95100   0.76200   0.75000   Biso      1.000     C          -0.126757           
         C27       1.0000    0.07410   0.53705   0.05970   Biso      1.000     C          -0.094968           
         C28       1.0000    0.58520   0.54760   0.97000   Biso      1.000     C          0.028156  
         C29       1.0000    0.90460   0.09540   0.75000   Biso      1.000     C          0.029737  
         C30       1.0000    0.54760   0.58520   0.03000   Biso      1.000     C          0.028162  
         C31       1.0000    0.95570   0.04430   0.75000   Biso      1.000     C          0.382985  
         C32       1.0000    0.90460   0.80920   0.75000   Biso      1.000     C          0.029741  
         C33       1.0000    0.95570   0.91140   0.75000   Biso      1.000     C          0.382983  
         C34       1.0000    0.80920   0.90460   0.25000   Biso      1.000     C          0.029729  
         C35       1.0000    0.91140   0.95570   0.25000   Biso      1.000     C          0.382985  
         C36       1.0000    0.03760   0.45240   0.03000   Biso      1.000     C          0.028165  
         C37       1.0000    0.09540   0.90460   0.25000   Biso      1.000     C          0.029727  
         C38       1.0000    0.04430   0.95570   0.25000   Biso      1.000     C          0.382985  
         C39       1.0000    0.45240   0.41480   0.53000   Biso      1.000     C          0.028123  
         C40       1.0000    0.09540   0.19080   0.25000   Biso      1.000     C          0.029739  
         C41       1.0000    0.04430   0.08860   0.25000   Biso      1.000     C          0.382982  
         C42       1.0000    0.58520   0.03760   0.53000   Biso      1.000     C          0.028123  
         C43       1.0000    0.57515   0.15030   0.62850   Biso      1.000     C          0.648435  
         C44       1.0000    0.53705   0.07410   0.55970   Biso      1.000     C          -0.094927           
         C45       1.0000    0.84970   0.42485   0.62850   Biso      1.000     C          0.648446  
         C46       1.0000    0.92590   0.46295   0.55970   Biso      1.000     C          -0.094968           
         C47       1.0000    0.96240   0.54760   0.53000   Biso      1.000     C          0.028156  
         C48       1.0000    0.57515   0.42485   0.62850   Biso      1.000     C          0.648444  
         C49       1.0000    0.53705   0.46295   0.55970   Biso      1.000     C          -0.094931           
         C50       1.0000    0.42485   0.84970   0.12850   Biso      1.000     C          0.648461  
         C51       1.0000    0.46295   0.92590   0.05970   Biso      1.000     C          -0.094938           
         C52       1.0000    0.15030   0.57515   0.12850   Biso      1.000     C          0.648457  
         C53       1.0000    0.90030   0.66640   0.75000   Biso      1.000     C          0.16755   
         C54       1.0000    0.54760   0.96240   0.47000   Biso      1.000     C          0.028165  
         C55       1.0000    0.19080   0.09540   0.75000   Biso      1.000     C          0.029732  
         C56       1.0000    0.66640   0.90030   0.25000   Biso      1.000     C          0.167553  
         C57       1.0000    0.76200   0.95100   0.25000   Biso      1.000     C          -0.126752           
         C58       1.0000    0.41480   0.45240   0.03000   Biso      1.000     C          0.028162  
         C59       1.0000    0.76610   0.66640   0.75000   Biso      1.000     C          0.16756   
         C60       1.0000    0.09970   0.76610   0.25000   Biso      1.000     C          0.167562  
         C61       1.0000    0.04900   0.81100   0.25000   Biso      1.000     C          -0.12675  
         C62       1.0000    0.03760   0.45240   0.47000   Biso      1.000     C          0.028162  
         C63       1.0000    0.54760   0.96240   0.03000   Biso      1.000     C          0.028159  
         C64       1.0000    0.23390   0.33360   0.25000   Biso      1.000     C          0.167562  
         C65       1.0000    0.95100   0.18900   0.75000   Biso      1.000     C          -0.126745           
         C66       1.0000    0.18900   0.23800   0.25000   Biso      1.000     C          -0.12676  
         C67       1.0000    0.41480   0.96240   0.47000   Biso      1.000     C          0.028163  
         C68       1.0000    0.09970   0.33360   0.25000   Biso      1.000     C          0.167553  
         C69       1.0000    0.81100   0.76200   0.75000   Biso      1.000     C          -0.126755           
         C70       1.0000    0.04900   0.23800   0.25000   Biso      1.000     C          -0.126759           
         C71       1.0000    0.90030   0.23390   0.75000   Biso      1.000     C          0.167542  
         C72       1.0000    0.66640   0.76610   0.25000   Biso      1.000     C          0.167562  
         C73       1.0000    0.58520   0.03760   0.97000   Biso      1.000     C          0.028151  
         C74       1.0000    0.76200   0.81100   0.25000   Biso      1.000     C          -0.126754           
         C75       1.0000    0.45240   0.03760   0.53000   Biso      1.000     C          0.028152  
         C76       1.0000    0.96240   0.41480   0.53000   Biso      1.000     C          0.028155  
         C77       1.0000    0.54760   0.58520   0.47000   Biso      1.000     C          0.028163  
         C78       1.0000    0.33360   0.09970   0.75000   Biso      1.000     C          0.167561  
         C79       1.0000    0.03760   0.58520   0.03000   Biso      1.000     C          0.028163  
         C80       1.0000    0.96240   0.54760   0.97000   Biso      1.000     C          0.028152  
         C81       1.0000    0.23800   0.04900   0.75000   Biso      1.000     C          -0.126749           
         C82       1.0000    0.18900   0.95100   0.25000   Biso      1.000     C          -0.126748           
         C83       1.0000    0.58520   0.54760   0.53000   Biso      1.000     C          0.028152  
         C84       1.0000    0.23390   0.90030   0.25000   Biso      1.000     C          0.167554  
         H1        1.0000    0.70260   0.63410   0.75000   Biso      1.000     H          0.076382  
         H2        1.0000    0.36590   0.06850   0.75000   Biso      1.000     H          0.076376  
         H3        1.0000    0.01450   0.22180   0.75000   Biso      1.000     H          0.133025  
         H4        1.0000    0.77820   0.79270   0.75000   Biso      1.000     H          0.133026  
         H5        1.0000    0.20730   0.98550   0.75000   Biso      1.000     H          0.133019  
         H6        1.0000    0.93150   0.29740   0.75000   Biso      1.000     H          0.076381  
         H7        1.0000    0.01450   0.79270   0.75000   Biso      1.000     H          0.133025  
         H8        1.0000    0.79270   0.01450   0.25000   Biso      1.000     H          0.133019  
         H9        1.0000    0.70260   0.06850   0.75000   Biso      1.000     H          0.076382  
         H10       1.0000    0.79270   0.77820   0.25000   Biso      1.000     H          0.133022  
         H11       1.0000    0.77820   0.98550   0.75000   Biso      1.000     H          0.133024  
         H12       1.0000    0.93150   0.63410   0.75000   Biso      1.000     H          0.076379  
         H13       1.0000    0.36590   0.29740   0.75000   Biso      1.000     H          0.076376  
         H14       1.0000    0.20730   0.22180   0.75000   Biso      1.000     H          0.13302   
         H15       1.0000    0.22180   0.01450   0.25000   Biso      1.000     H          0.133021  
         H16       1.0000    0.63410   0.70260   0.25000   Biso      1.000     H          0.076379  
         H17       1.0000    0.63410   0.93150   0.25000   Biso      1.000     H          0.076376  
         H18       1.0000    0.29740   0.93150   0.25000   Biso      1.000     H          0.076375  
         H19       1.0000    0.98550   0.20730   0.25000   Biso      1.000     H          0.133027  
         H20       1.0000    0.06850   0.36590   0.25000   Biso      1.000     H          0.076384  
         H21       1.0000    0.22180   0.20730   0.25000   Biso      1.000     H          0.133029  
         H22       1.0000    0.29740   0.36590   0.25000   Biso      1.000     H          0.076386  
         H23       1.0000    0.98550   0.77820   0.25000   Biso      1.000     H          0.133022  
         H24       1.0000    0.06850   0.70260   0.25000   Biso      1.000     H          0.076377  
         Mg1       1.0000    0.53289   0.26645   0.75000   Biso      1.000     Mg          1.33525   
         Mg2       1.0000    0.73355   0.26645   0.75000   Biso      1.000     Mg          1.3353    
         Mg3       1.0000    0.73356   0.46711   0.75000   Biso      1.000     Mg          1.335252  
         Mg4       1.0000    0.26644   0.53289   0.25000   Biso      1.000     Mg          1.335498  
         Mg5       1.0000    0.46711   0.73356   0.25000   Biso      1.000     Mg          1.335491  
         Mg6       1.0000    0.26645   0.73356   0.25000   Biso      1.000     Mg          1.335578  
         N1        1.0000    0.04700   0.09400   0.75000   Biso      1.000     N          -0.390926           
         N2        1.0000    0.81000   0.62000   0.75000   Biso      1.000     N          -0.331443           
         N3        1.0000    0.90600   0.95300   0.75000   Biso      1.000     N          -0.390927           
         N4        1.0000    0.95300   0.04700   0.25000   Biso      1.000     N          -0.390926           
         N5        1.0000    0.62000   0.81000   0.25000   Biso      1.000     N          -0.331442           
         N6        1.0000    0.81000   0.19000   0.75000   Biso      1.000     N          -0.331432           
         N7        1.0000    0.19000   0.81000   0.25000   Biso      1.000     N          -0.331459           
         N8        1.0000    0.19000   0.38000   0.25000   Biso      1.000     N          -0.331436           
         N9        1.0000    0.04700   0.95300   0.75000   Biso      1.000     N          -0.390926           
         N10       1.0000    0.09400   0.04700   0.25000   Biso      1.000     N          -0.390927           
         N11       1.0000    0.60910   0.92750   0.44330   Biso      1.000     N          0.494788  
         N12       1.0000    0.07250   0.68160   0.05670   Biso      1.000     N          0.494789  
         N13       1.0000    0.92750   0.60910   0.55670   Biso      1.000     N          0.49479   
         N14       1.0000    0.31840   0.39090   0.05670   Biso      1.000     N          0.494792  
         N15       1.0000    0.68160   0.60910   0.94330   Biso      1.000     N          0.494792  
         N16       1.0000    0.92750   0.31840   0.94330   Biso      1.000     N          0.494791  
         N17       1.0000    0.07250   0.39090   0.44330   Biso      1.000     N          0.49479   
         N18       1.0000    0.68160   0.07250   0.55670   Biso      1.000     N          0.494792  
         N19       1.0000    0.39090   0.07250   0.94330   Biso      1.000     N          0.494792  
         N20       1.0000    0.31840   0.39090   0.44330   Biso      1.000     N          0.494792  
         N21       1.0000    0.60910   0.68160   0.44330   Biso      1.000     N          0.49479   
         N22       1.0000    0.07250   0.68160   0.44330   Biso      1.000     N          0.494789  
         N23       1.0000    0.38000   0.19000   0.75000   Biso      1.000     N          -0.331448           
         N24       1.0000    0.92750   0.60910   0.94330   Biso      1.000     N          0.49479   
         N25       1.0000    0.39090   0.31840   0.94330   Biso      1.000     N          0.49479   
         N26       1.0000    0.31840   0.92750   0.44330   Biso      1.000     N          0.494788  
         N27       1.0000    0.60910   0.92750   0.05670   Biso      1.000     N          0.494788  
         N28       1.0000    0.68160   0.07250   0.94330   Biso      1.000     N          0.49479   
         N29       1.0000    0.92750   0.31840   0.55670   Biso      1.000     N          0.494789  
         N30       1.0000    0.39090   0.31840   0.55670   Biso      1.000     N          0.494792  
         N31       1.0000    0.39090   0.07250   0.55670   Biso      1.000     N          0.49479   
         N32       1.0000    0.31840   0.92750   0.05670   Biso      1.000     N          0.49479   
         N33       1.0000    0.60910   0.68160   0.05670   Biso      1.000     N          0.49479   
         N34       1.0000    0.68160   0.60910   0.55670   Biso      1.000     N          0.494792  
         N35       1.0000    0.95300   0.90600   0.25000   Biso      1.000     N          -0.390925           
         N36       1.0000    0.07250   0.39090   0.05670   Biso      1.000     N          0.49479   
         O1        1.0000    0.27680   0.86280   0.49530   Biso      1.000     O          -0.248051           
         O2        1.0000    0.29100   0.95800   0.38430   Biso      1.000     O          -0.254313           
         O3        1.0000    0.47641   0.65491   0.34600   Biso      1.000     O          -0.598495           
         O4        1.0000    0.82150   0.34509   0.65400   Biso      1.000     O          -0.598442           
         O5        1.0000    0.70900   0.66700   0.61570   Biso      1.000     O          -0.254318           
         O6        1.0000    0.58600   0.72320   0.49530   Biso      1.000     O          -0.248051           
         O7        1.0000    0.82150   0.47641   0.84600   Biso      1.000     O          -0.598478           
         O8        1.0000    0.41400   0.13720   0.50470   Biso      1.000     O          -0.248053           
         O9        1.0000    0.86280   0.58600   0.99530   Biso      1.000     O          -0.248054           
         O10       1.0000    0.95800   0.66700   0.88430   Biso      1.000     O          -0.254318           
         O11       1.0000    0.33300   0.04200   0.61570   Biso      1.000     O          -0.254316           
         O12       1.0000    0.66700   0.70900   0.38430   Biso      1.000     O          -0.254317           
         O13       1.0000    0.04200   0.33300   0.38430   Biso      1.000     O          -0.254319           
         O14       1.0000    0.47641   0.82150   0.15400   Biso      1.000     O          -0.598495           
         O15       1.0000    0.58600   0.86280   0.00470   Biso      1.000     O          -0.24805  
         O16       1.0000    0.66700   0.95800   0.11570   Biso      1.000     O          -0.254316           
         O17       1.0000    0.17850   0.65491   0.15400   Biso      1.000     O          -0.598489           
         O18       1.0000    0.72320   0.58600   0.50470   Biso      1.000     O          -0.248053           
         O19       1.0000    0.13720   0.72320   0.00470   Biso      1.000     O          -0.248053           
         O20       1.0000    0.04200   0.70900   0.11570   Biso      1.000     O          -0.254314           
         O21       1.0000    0.34509   0.82150   0.34600   Biso      1.000     O          -0.5985   
         O22       1.0000    0.65491   0.17850   0.84600   Biso      1.000     O          -0.598443           
         O23       1.0000    0.27680   0.41400   0.00470   Biso      1.000     O          -0.248049           
         O24       1.0000    0.29100   0.33300   0.11570   Biso      1.000     O          -0.254319           
         O25       1.0000    0.17850   0.52359   0.34600   Biso      1.000     O          -0.598497           
         O26       1.0000    0.95800   0.29100   0.61570   Biso      1.000     O          -0.254315           
         O27       1.0000    0.86280   0.27680   0.50470   Biso      1.000     O          -0.248055           
         O28       1.0000    0.13720   0.41400   0.49530   Biso      1.000     O          -0.24805  
         O29       1.0000    0.65491   0.47641   0.65400   Biso      1.000     O          -0.598473           
         O30       1.0000    0.34509   0.52359   0.15400   Biso      1.000     O          -0.598497           
         O31       1.0000    0.66700   0.70900   0.11570   Biso      1.000     O          -0.254316           
         O32       1.0000    0.70900   0.04200   0.88430   Biso      1.000     O          -0.254315           
         O33       1.0000    0.86280   0.58600   0.50470   Biso      1.000     O          -0.248054           
         O34       1.0000    0.95800   0.66700   0.61570   Biso      1.000     O          -0.254318           
         O35       1.0000    0.65491   0.17850   0.65400   Biso      1.000     O          -0.598443           
         O36       1.0000    0.33333   0.66667   0.25000   Biso      1.000     O          -0.964831           
         O37       1.0000    0.66667   0.33333   0.75000   Biso      1.000     O          -0.964302           
         O38       1.0000    0.72320   0.13720   0.50470   Biso      1.000     O          -0.248054           
         O39       1.0000    0.70900   0.04200   0.61570   Biso      1.000     O          -0.254315           
         O40       1.0000    0.52359   0.34509   0.65400   Biso      1.000     O          -0.598483           
         O41       1.0000    0.82150   0.47641   0.65400   Biso      1.000     O          -0.598477           
         O42       1.0000    0.41400   0.27680   0.50470   Biso      1.000     O          -0.248052           
         O43       1.0000    0.17850   0.52359   0.15400   Biso      1.000     O          -0.598496           
         O44       1.0000    0.13720   0.41400   0.00470   Biso      1.000     O          -0.24805  
         O45       1.0000    0.04200   0.33300   0.11570   Biso      1.000     O          -0.254319           
         O46       1.0000    0.34509   0.82150   0.15400   Biso      1.000     O          -0.5985   
         O47       1.0000    0.27680   0.86280   0.00470   Biso      1.000     O          -0.248051           
         O48       1.0000    0.29100   0.95800   0.11570   Biso      1.000     O          -0.254314           
         O49       1.0000    0.47641   0.65491   0.15400   Biso      1.000     O          -0.598496           
         O50       1.0000    0.58600   0.72320   0.00470   Biso      1.000     O          -0.248051           
         O51       1.0000    0.33300   0.29100   0.61570   Biso      1.000     O          -0.254317           
         O52       1.0000    0.72320   0.13720   0.99530   Biso      1.000     O          -0.248054           
         O53       1.0000    0.70900   0.66700   0.88430   Biso      1.000     O          -0.254318           
         O54       1.0000    0.65491   0.47641   0.84600   Biso      1.000     O          -0.598475           
         O55       1.0000    0.52359   0.34509   0.84600   Biso      1.000     O          -0.598483           
         O56       1.0000    0.41400   0.27680   0.99530   Biso      1.000     O          -0.248053           
         O57       1.0000    0.33300   0.29100   0.88430   Biso      1.000     O          -0.254316           
         O58       1.0000    0.47641   0.82150   0.34600   Biso      1.000     O          -0.598494           
         O59       1.0000    0.58600   0.86280   0.49530   Biso      1.000     O          -0.24805  
         O60       1.0000    0.66700   0.95800   0.38430   Biso      1.000     O          -0.254316           
         O61       1.0000    0.17850   0.65491   0.34600   Biso      1.000     O          -0.59849  
         O62       1.0000    0.13720   0.72320   0.49530   Biso      1.000     O          -0.248053           
         O63       1.0000    0.72320   0.58600   0.99530   Biso      1.000     O          -0.248053           
         O64       1.0000    0.04200   0.70900   0.38430   Biso      1.000     O          -0.254314           
         O65       1.0000    0.27680   0.41400   0.49530   Biso      1.000     O          -0.248049           
         O66       1.0000    0.29100   0.33300   0.38430   Biso      1.000     O          -0.254319           
         O67       1.0000    0.52359   0.17850   0.84600   Biso      1.000     O          -0.598467           
         O68       1.0000    0.41400   0.13720   0.99530   Biso      1.000     O          -0.248053           
         O69       1.0000    0.33300   0.04200   0.88430   Biso      1.000     O          -0.254317           
         O70       1.0000    0.82150   0.34509   0.84600   Biso      1.000     O          -0.59844  
         O71       1.0000    0.86280   0.27680   0.99530   Biso      1.000     O          -0.248055           
         O72       1.0000    0.95800   0.29100   0.88430   Biso      1.000     O          -0.254316           
         O73       1.0000    0.34509   0.52359   0.34600   Biso      1.000     O          -0.598497           
         O74       1.0000    0.52359   0.17850   0.65400   Biso      1.000     O          -0.598466 