
##########################################################################
#               Crystallographic Information Format file
#               Produced by PyCifRW module
#
#  This is a CIF file.  CIF has been adopted by the International
#  Union of Crystallography as the standard for data archiving and
#  transmission.
#
#  For information on this file format, follow the CIF links at
#  http://www.iucr.org
##########################################################################

data_image0

_cell_length_a                          11.8055
_cell_length_b                          15.2668
_cell_length_c                          17.0691
_cell_angle_alpha                       90
_cell_angle_beta                        90
_cell_angle_gamma                       92.452
_symmetry_space_group_name_H-M          'P 1'
_symmetry_int_tables_number             1
loop_
  _symmetry_equiv_pos_as_xyz
         'x, y, z' 
loop_
  _atom_site_label
  _atom_site_occupancy
  _atom_site_fract_x
  _atom_site_fract_y
  _atom_site_fract_z
  _atom_site_thermal_displace_type
  _atom_site_B_iso_or_equiv
  _atom_site_type_symbol
  _atom_site_charge
         C1        1.0000    0.96140   0.26070   0.47920   Biso      1.000     C          0.627684  
         C2        1.0000    0.73640   0.30500   0.23690   Biso      1.000     C          0.632549  
         C3        1.0000    0.62330   0.29550   0.19270   Biso      1.000     C          -0.108563           
         C4        1.0000    0.54500   0.22650   0.23510   Biso      1.000     C          -0.222742           
         C5        1.0000    0.42950   0.21850   0.19380   Biso      1.000     C          -0.103813           
         C6        1.0000    0.44350   0.19940   0.10680   Biso      1.000     C          -0.227257           
         C7        1.0000    0.83870   0.99030   0.26520   Biso      1.000     C          -0.231881           
         C8        1.0000    0.90050   0.02290   0.40460   Biso      1.000     C          -0.212512           
         C9        1.0000    0.72150   0.95790   0.29630   Biso      1.000     C          -0.104558           
         C10       1.0000    0.73100   0.92050   0.37830   Biso      1.000     C          -0.223688           
         C11       1.0000    0.78460   0.98930   0.43520   Biso      1.000     C          -0.11096  
         C12       1.0000    0.79390   0.95690   0.51840   Biso      1.000     C          0.656272  
         C13       1.0000    0.63870   0.27150   0.10720   Biso      1.000     C          -0.226923           
         C14       1.0000    0.35900   0.14770   0.23500   Biso      1.000     C          0.640124  
         C15       1.0000    0.52590   0.26320   0.06570   Biso      1.000     C          -0.097298           
         C16       1.0000    0.66290   0.88850   0.24350   Biso      1.000     C          0.657279  
         C17       1.0000    0.53860   0.23930   0.97920   Biso      1.000     C          0.627684  
         C18       1.0000    0.89190   0.05800   0.32270   Biso      1.000     C          -0.109865           
         C19       1.0000    0.97410   0.23680   0.56570   Biso      1.000     C          -0.097298           
         C20       1.0000    0.59950   0.47710   0.90460   Biso      1.000     C          -0.212512           
         C21       1.0000    0.76360   0.19500   0.73690   Biso      1.000     C          0.632549  
         C22       1.0000    0.87670   0.20450   0.69270   Biso      1.000     C          -0.108564           
         C23       1.0000    0.95500   0.27350   0.73510   Biso      1.000     C          -0.222742           
         C24       1.0000    0.07050   0.28150   0.69380   Biso      1.000     C          -0.103813           
         C25       1.0000    0.05650   0.30060   0.60680   Biso      1.000     C          -0.227257           
         C26       1.0000    0.01170   0.09110   0.29820   Biso      1.000     C          0.649459  
         C27       1.0000    0.66130   0.50970   0.76520   Biso      1.000     C          -0.231881           
         C28       1.0000    0.83710   0.61150   0.74350   Biso      1.000     C          0.657279  
         C29       1.0000    0.76900   0.57950   0.87830   Biso      1.000     C          -0.223688           
         C30       1.0000    0.71540   0.51070   0.93520   Biso      1.000     C          -0.11096  
         C31       1.0000    0.70610   0.54310   0.01840   Biso      1.000     C          0.656272  
         C32       1.0000    0.86130   0.22850   0.60720   Biso      1.000     C          -0.226923           
         C33       1.0000    0.14100   0.35230   0.73500   Biso      1.000     C          0.640124  
         C34       1.0000    0.77850   0.54210   0.79630   Biso      1.000     C          -0.104558           
         C35       1.0000    0.51170   0.59110   0.20180   Biso      1.000     C          0.649459  
         C36       1.0000    0.39190   0.55800   0.17730   Biso      1.000     C          -0.109865           
         C37       1.0000    0.40050   0.52290   0.09540   Biso      1.000     C          -0.212512           
         C38       1.0000    0.37670   0.70450   0.80730   Biso      1.000     C          -0.108563           
         C39       1.0000    0.45500   0.77350   0.76490   Biso      1.000     C          -0.222742           
         C40       1.0000    0.57050   0.78150   0.80620   Biso      1.000     C          -0.103813           
         C41       1.0000    0.55650   0.80060   0.89320   Biso      1.000     C          -0.227257           
         C42       1.0000    0.16130   0.00970   0.73480   Biso      1.000     C          -0.231881           
         C43       1.0000    0.27850   0.04210   0.70370   Biso      1.000     C          -0.104558           
         C44       1.0000    0.26360   0.69500   0.76310   Biso      1.000     C          0.632549  
         C45       1.0000    0.33710   0.11150   0.75650   Biso      1.000     C          0.657279  
         C46       1.0000    0.21540   0.01070   0.56480   Biso      1.000     C          -0.11096  
         C47       1.0000    0.20610   0.04310   0.48160   Biso      1.000     C          0.656272  
         C48       1.0000    0.36130   0.72850   0.89280   Biso      1.000     C          -0.226923           
         C49       1.0000    0.64100   0.85230   0.76500   Biso      1.000     C          0.640124  
         C50       1.0000    0.47410   0.73680   0.93430   Biso      1.000     C          -0.097298           
         C51       1.0000    0.46140   0.76070   0.02080   Biso      1.000     C          0.627684  
         C52       1.0000    0.26900   0.07950   0.62170   Biso      1.000     C          -0.223688           
         C53       1.0000    0.09950   0.97710   0.59540   Biso      1.000     C          -0.212512           
         C54       1.0000    0.10810   0.94200   0.67730   Biso      1.000     C          -0.109865           
         C55       1.0000    0.98830   0.90890   0.70180   Biso      1.000     C          0.649459  
         C56       1.0000    0.23640   0.80500   0.26310   Biso      1.000     C          0.632549  
         C57       1.0000    0.12330   0.79550   0.30730   Biso      1.000     C          -0.108563           
         C58       1.0000    0.04500   0.72650   0.26490   Biso      1.000     C          -0.222742           
         C59       1.0000    0.92950   0.71850   0.30620   Biso      1.000     C          -0.103813           
         C60       1.0000    0.94350   0.69940   0.39320   Biso      1.000     C          -0.227257           
         C61       1.0000    0.33870   0.49030   0.23480   Biso      1.000     C          -0.231881           
         C62       1.0000    0.22150   0.45790   0.20370   Biso      1.000     C          -0.104558           
         C63       1.0000    0.16290   0.38850   0.25650   Biso      1.000     C          0.657279  
         C64       1.0000    0.23100   0.42050   0.12170   Biso      1.000     C          -0.223688           
         C65       1.0000    0.28460   0.48930   0.06480   Biso      1.000     C          -0.11096  
         C66       1.0000    0.29390   0.45690   0.98160   Biso      1.000     C          0.656272  
         C67       1.0000    0.13870   0.77150   0.39280   Biso      1.000     C          -0.226923           
         C68       1.0000    0.85900   0.64770   0.26500   Biso      1.000     C          0.640124  
         C69       1.0000    0.02590   0.76320   0.43430   Biso      1.000     C          -0.097298           
         C70       1.0000    0.03860   0.73930   0.52080   Biso      1.000     C          0.627684  
         C71       1.0000    0.60810   0.44200   0.82270   Biso      1.000     C          -0.109865           
         C72       1.0000    0.48830   0.40890   0.79820   Biso      1.000     C          0.649459  
         Cd1       1.0000    0.30332   0.27177   0.87901   Biso      1.000     Cd          1.128483  
         Cd2       1.0000    0.25511   0.00839   0.30880   Biso      1.000     Cd          1.018887  
         Cd3       1.0000    0.56699   0.19389   0.82545   Biso      1.000     Cd          1.003151  
         Cd4       1.0000    0.74489   0.99161   0.69120   Biso      1.000     Cd          1.018887  
         Cd5       1.0000    0.19668   0.22823   0.37901   Biso      1.000     Cd          1.128483  
         Cd6       1.0000    0.93301   0.30611   0.32545   Biso      1.000     Cd          1.003151  
         Cd7       1.0000    0.75511   0.50839   0.19120   Biso      1.000     Cd          1.018887  
         Cd8       1.0000    0.69668   0.72823   0.12099   Biso      1.000     Cd          1.128483  
         Cd9       1.0000    0.43301   0.80611   0.17455   Biso      1.000     Cd          1.003151  
         Cd10      1.0000    0.80332   0.77177   0.62099   Biso      1.000     Cd          1.128482  
         Cd11      1.0000    0.06699   0.69389   0.67455   Biso      1.000     Cd          1.003151  
         Cd12      1.0000    0.24489   0.49161   0.80880   Biso      1.000     Cd          1.018887  
         H1        1.0000    0.93070   0.06880   0.43890   Biso      1.000     H          0.110558  
         H2        1.0000    0.84340   0.10850   0.32410   Biso      1.000     H          0.093815  
         H3        1.0000    0.53020   0.85950   0.89920   Biso      1.000     H          0.117405  
         H4        1.0000    0.82370   0.28360   0.60370   Biso      1.000     H          0.116944  
         H5        1.0000    0.95250   0.97540   0.40530   Biso      1.000     H          0.105955  
         H6        1.0000    0.00710   0.17910   0.56750   Biso      1.000     H          0.0985    
         H7        1.0000    0.58700   0.35200   0.19480   Biso      1.000     H          0.08975   
         H8        1.0000    0.88760   0.94120   0.26000   Biso      1.000     H          0.11219   
         H9        1.0000    0.53470   0.24390   0.28920   Biso      1.000     H          0.117385  
         H10       1.0000    0.39200   0.27420   0.19950   Biso      1.000     H          0.099137  
         H11       1.0000    0.46980   0.14050   0.10080   Biso      1.000     H          0.117405  
         H12       1.0000    0.37010   0.20140   0.08160   Biso      1.000     H          0.112329  
         H13       1.0000    0.81360   0.18370   0.58170   Biso      1.000     H          0.113331  
         H14       1.0000    0.57990   0.17010   0.23470   Biso      1.000     H          0.116714  
         H15       1.0000    0.76490   0.46070   0.93600   Biso      1.000     H          0.10308   
         H16       1.0000    0.12990   0.29860   0.58160   Biso      1.000     H          0.112329  
         H17       1.0000    0.72280   0.63050   0.87690   Biso      1.000     H          0.110831  
         H18       1.0000    0.82700   0.49160   0.79900   Biso      1.000     H          0.097189  
         H19       1.0000    0.66950   0.48320   0.71400   Biso      1.000     H          0.120793  
         H20       1.0000    0.61240   0.55880   0.76000   Biso      1.000     H          0.11219   
         H21       1.0000    0.83050   0.01680   0.21400   Biso      1.000     H          0.120793  
         H22       1.0000    0.03020   0.35950   0.60080   Biso      1.000     H          0.117405  
         H23       1.0000    0.60800   0.72580   0.80050   Biso      1.000     H          0.099137  
         H24       1.0000    0.96530   0.25610   0.78920   Biso      1.000     H          0.117385  
         H25       1.0000    0.92010   0.32990   0.73470   Biso      1.000     H          0.116714  
         H26       1.0000    0.91300   0.14800   0.69480   Biso      1.000     H          0.089749  
         H27       1.0000    0.54750   0.52460   0.90530   Biso      1.000     H          0.105955  
         H28       1.0000    0.56930   0.43120   0.93890   Biso      1.000     H          0.110558  
         H29       1.0000    0.65660   0.39150   0.82410   Biso      1.000     H          0.093815  
         H30       1.0000    0.84380   0.59810   0.89710   Biso      1.000     H          0.114316  
         H31       1.0000    0.67300   0.00840   0.29900   Biso      1.000     H          0.097189  
         H32       1.0000    0.10800   0.22580   0.69950   Biso      1.000     H          0.099137  
         H33       1.0000    0.65620   0.90190   0.39710   Biso      1.000     H          0.114316  
         H34       1.0000    0.99290   0.82090   0.43250   Biso      1.000     H          0.0985    
         H35       1.0000    0.15660   0.89150   0.67590   Biso      1.000     H          0.093815  
         H36       1.0000    0.06930   0.93120   0.56110   Biso      1.000     H          0.110558  
         H37       1.0000    0.04750   0.02460   0.59470   Biso      1.000     H          0.105955  
         H38       1.0000    0.41300   0.64800   0.80520   Biso      1.000     H          0.089749  
         H39       1.0000    0.42010   0.82990   0.76530   Biso      1.000     H          0.116714  
         H40       1.0000    0.46530   0.75610   0.71080   Biso      1.000     H          0.117385  
         H41       1.0000    0.50710   0.67910   0.93250   Biso      1.000     H          0.0985    
         H42       1.0000    0.31360   0.68370   0.91830   Biso      1.000     H          0.113331  
         H43       1.0000    0.26490   0.96070   0.56400   Biso      1.000     H          0.10308   
         H44       1.0000    0.34380   0.09810   0.60290   Biso      1.000     H          0.114316  
         H45       1.0000    0.22280   0.13050   0.62310   Biso      1.000     H          0.110831  
         H46       1.0000    0.32700   0.99160   0.70100   Biso      1.000     H          0.097189  
         H47       1.0000    0.16950   0.98320   0.78600   Biso      1.000     H          0.120793  
         H48       1.0000    0.11240   0.05880   0.74000   Biso      1.000     H          0.11219   
         H49       1.0000    0.62990   0.79860   0.91840   Biso      1.000     H          0.112329  
         H50       1.0000    0.77720   0.86950   0.37690   Biso      1.000     H          0.110831  
         H51       1.0000    0.17630   0.71640   0.39630   Biso      1.000     H          0.116944  
         H52       1.0000    0.18640   0.81630   0.41830   Biso      1.000     H          0.11333   
         H53       1.0000    0.32370   0.78360   0.89630   Biso      1.000     H          0.116944  
         H54       1.0000    0.15620   0.40190   0.10290   Biso      1.000     H          0.114316  
         H55       1.0000    0.73510   0.03930   0.43600   Biso      1.000     H          0.10308   
         H56       1.0000    0.23510   0.53930   0.06400   Biso      1.000     H          0.10308   
         H57       1.0000    0.68640   0.31630   0.08170   Biso      1.000     H          0.113331  
         H58       1.0000    0.67630   0.21640   0.10370   Biso      1.000     H          0.116944  
         H59       1.0000    0.49290   0.32090   0.06750   Biso      1.000     H          0.0985    
         H60       1.0000    0.34340   0.60850   0.17590   Biso      1.000     H          0.093815  
         H61       1.0000    0.45250   0.47540   0.09470   Biso      1.000     H          0.105955  
         H62       1.0000    0.08700   0.85200   0.30520   Biso      1.000     H          0.089749  
         H63       1.0000    0.07990   0.67010   0.26530   Biso      1.000     H          0.116714  
         H64       1.0000    0.43070   0.56880   0.06110   Biso      1.000     H          0.110558  
         H65       1.0000    0.03470   0.74390   0.21080   Biso      1.000     H          0.117386  
         H66       1.0000    0.89200   0.77420   0.30050   Biso      1.000     H          0.099137  
         H67       1.0000    0.96980   0.64050   0.39920   Biso      1.000     H          0.117405  
         H68       1.0000    0.87010   0.70140   0.41840   Biso      1.000     H          0.112329  
         H69       1.0000    0.38760   0.44120   0.24000   Biso      1.000     H          0.11219   
         H70       1.0000    0.33050   0.51680   0.28600   Biso      1.000     H          0.120794  
         H71       1.0000    0.17300   0.50840   0.20100   Biso      1.000     H          0.097189  
         H72       1.0000    0.27720   0.36950   0.12310   Biso      1.000     H          0.110831  
         O1        1.0000    0.82650   0.65980   0.19640   Biso      1.000     O          -0.642841           
         O2        1.0000    0.29520   0.51570   0.93060   Biso      1.000     O          -0.571765           
         O3        1.0000    0.30300   0.37720   0.97010   Biso      1.000     O          -0.596764           
         O4        1.0000    0.05760   0.37640   0.24600   Biso      1.000     O          -0.596585           
         O5        1.0000    0.57670   0.53430   0.22660   Biso      1.000     O          -0.57168  
         O6        1.0000    0.27990   0.88010   0.25080   Biso      1.000     O          -0.589977           
         O7        1.0000    0.83760   0.57550   0.29870   Biso      1.000     O          -0.530994           
         O8        1.0000    0.28370   0.73930   0.24140   Biso      1.000     O          -0.516192           
         O9        1.0000    0.22060   0.34650   0.30220   Biso      1.000     O          -0.580587           
         O10       1.0000    0.95060   0.70930   0.55700   Biso      1.000     O          -0.630679           
         O11       1.0000    0.20480   0.98430   0.43060   Biso      1.000     O          -0.571765           
         O12       1.0000    0.95980   0.82830   0.69090   Biso      1.000     O          -0.640622           
         O13       1.0000    0.21630   0.76070   0.74140   Biso      1.000     O          -0.516192           
         O14       1.0000    0.22010   0.61990   0.75080   Biso      1.000     O          -0.589977           
         O15       1.0000    0.92330   0.96570   0.72660   Biso      1.000     O          -0.57168  
         O16       1.0000    0.27940   0.15350   0.80220   Biso      1.000     O          -0.580587           
         O17       1.0000    0.44240   0.12360   0.74600   Biso      1.000     O          -0.596585           
         O18       1.0000    0.19700   0.12280   0.47010   Biso      1.000     O          -0.596764           
         O19       1.0000    0.67350   0.84020   0.69640   Biso      1.000     O          -0.642841           
         O20       1.0000    0.54020   0.67170   0.19090   Biso      1.000     O          -0.640622           
         O21       1.0000    0.66240   0.92450   0.79870   Biso      1.000     O          -0.530994           
         O22       1.0000    0.13140   0.74770   0.55480   Biso      1.000     O          -0.515361           
         O23       1.0000    0.63140   0.24770   0.94520   Biso      1.000     O          -0.515361           
         O24       1.0000    0.42330   0.46570   0.77340   Biso      1.000     O          -0.57168  
         O25       1.0000    0.33760   0.07550   0.20130   Biso      1.000     O          -0.530994           
         O26       1.0000    0.54940   0.79070   0.05700   Biso      1.000     O          -0.630679           
         O27       1.0000    0.45980   0.32830   0.80910   Biso      1.000     O          -0.640622           
         O28       1.0000    0.71630   0.26070   0.75860   Biso      1.000     O          -0.516192           
         O29       1.0000    0.72010   0.11990   0.74920   Biso      1.000     O          -0.589977           
         O30       1.0000    0.77940   0.65350   0.69780   Biso      1.000     O          -0.580587           
         O31       1.0000    0.94240   0.62360   0.75400   Biso      1.000     O          -0.596585           
         O32       1.0000    0.69700   0.62280   0.02990   Biso      1.000     O          -0.596764           
         O33       1.0000    0.70480   0.48430   0.06940   Biso      1.000     O          -0.571765           
         O34       1.0000    0.17350   0.34020   0.80360   Biso      1.000     O          -0.642841           
         O35       1.0000    0.16240   0.42450   0.70130   Biso      1.000     O          -0.530994           
         O36       1.0000    0.04940   0.29070   0.44300   Biso      1.000     O          -0.630679           
         O37       1.0000    0.86860   0.25230   0.44520   Biso      1.000     O          -0.515361           
         O38       1.0000    0.04020   0.17170   0.30910   Biso      1.000     O          -0.640622           
         O39       1.0000    0.78370   0.23930   0.25860   Biso      1.000     O          -0.516192           
         O40       1.0000    0.77990   0.38010   0.24920   Biso      1.000     O          -0.589977           
         O41       1.0000    0.07670   0.03430   0.27340   Biso      1.000     O          -0.57168  
         O42       1.0000    0.72060   0.84650   0.19780   Biso      1.000     O          -0.580587           
         O43       1.0000    0.55760   0.87640   0.25400   Biso      1.000     O          -0.596585           
         O44       1.0000    0.80300   0.87720   0.52990   Biso      1.000     O          -0.596764           
         O45       1.0000    0.79520   0.01570   0.56940   Biso      1.000     O          -0.571765           
         O46       1.0000    0.32650   0.15980   0.30360   Biso      1.000     O          -0.642841           
         O47       1.0000    0.45060   0.20930   0.94300   Biso      1.000     O          -0.630679           
         O48       1.0000    0.36860   0.75230   0.05480   Biso      1.000     O          -0.515361 