
##########################################################################
#               Crystallographic Information Format file
#               Produced by PyCifRW module
#
#  This is a CIF file.  CIF has been adopted by the International
#  Union of Crystallography as the standard for data archiving and
#  transmission.
#
#  For information on this file format, follow the CIF links at
#  http://www.iucr.org
##########################################################################

data_image0

_cell_length_a                          8.945
_cell_length_b                          14.856
_cell_length_c                          19.861
_cell_angle_alpha                       91.644
_cell_angle_beta                        101.974
_cell_angle_gamma                       93.755
_symmetry_space_group_name_H-M          'P 1'
_symmetry_int_tables_number             1
loop_
  _symmetry_equiv_pos_as_xyz
         'x, y, z' 
loop_
  _atom_site_label
  _atom_site_occupancy
  _atom_site_fract_x
  _atom_site_fract_y
  _atom_site_fract_z
  _atom_site_thermal_displace_type
  _atom_site_B_iso_or_equiv
  _atom_site_type_symbol
  _atom_site_charge
         C1        1.0000    0.75490   0.51510   0.75288   Biso      1.000     C          -0.115223           
         C2        1.0000    0.75170   0.41520   0.42684   Biso      1.000     C          0.07875800000000001           
         C3        1.0000    0.69750   0.49920   0.07350   Biso      1.000     C          -0.041032           
         C4        1.0000    0.63250   0.64760   0.53003   Biso      1.000     C          -0.206533           
         C5        1.0000    0.59240   0.63950   0.45837   Biso      1.000     C          0.089443  
         C6        1.0000    0.57890   0.44410   0.08310   Biso      1.000     C          -0.09577100000000001          
         C7        1.0000    0.63630   0.56470   0.42521   Biso      1.000     C          -0.21424200000000002          
         C8        1.0000    0.71140   0.49660   0.46210   Biso      1.000     C          0.093793  
         C9        1.0000    0.15810   0.10750   0.15962   Biso      1.000     C          0.09457   
         C10       1.0000    0.74650   0.50570   0.53353   Biso      1.000     C          -0.206673           
         C11       1.0000    0.70870   0.58080   0.56813   Biso      1.000     C          0.091324  
         C12       1.0000    0.29450   0.10400   0.26168   Biso      1.000     C          -0.011609           
         C13       1.0000    0.82910   0.67290   0.75232   Biso      1.000     C          -0.10607799999999999          
         C14       1.0000    0.39020   0.13590   0.22258   Biso      1.000     C          -0.105671           
         C15       1.0000    0.79540   0.66880   0.68124   Biso      1.000     C          -0.150285           
         C16       1.0000    0.74370   0.58750   0.64482   Biso      1.000     C          0.086202  
         C17       1.0000    0.14220   0.39960   0.13313   Biso      1.000     C          0.576001  
         C18       1.0000    0.72320   0.51110   0.68189   Biso      1.000     C          -0.15147  
         C19       1.0000    0.65710   0.37780   0.36625   Biso      1.000     C          -0.153751           
         C20       1.0000    0.72320   0.37140   0.02888   Biso      1.000     C          0.109826  
         C21       1.0000    0.69650   0.30340   0.33269   Biso      1.000     C          -0.119952           
         C22       1.0000    0.44970   0.07830   0.88020   Biso      1.000     C          -0.12039000000000001          
         C23       1.0000    0.81370   0.11500   0.69810   Biso      1.000     C          0.581757  
         C24       1.0000    0.18630   0.88500   0.30190   Biso      1.000     C          0.581757  
         C25       1.0000    0.46340   0.23220   0.98636   Biso      1.000     C          -0.29779  
         C26       1.0000    0.39470   0.75290   0.44803   Biso      1.000     C          -0.14315799999999998          
         C27       1.0000    0.49810   0.28110   0.04897   Biso      1.000     C          0.230859  
         C28       1.0000    0.29990   0.81190   0.41080   Biso      1.000     C          -0.102246           
         C29       1.0000    0.30030   0.82560   0.34222   Biso      1.000     C          -0.016181           
         C30       1.0000    0.44350   0.25140   0.10507   Biso      1.000     C          -0.23606999999999997          
         C31       1.0000    0.18910   0.40390   0.21056   Biso      1.000     C          -0.042421           
         C32       1.0000    0.40060   0.77910   0.31226   Biso      1.000     C          -0.121897           
         C33       1.0000    0.49790   0.72100   0.35010   Biso      1.000     C          -0.159887           
         C34       1.0000    0.49630   0.70650   0.41882   Biso      1.000     C          0.074789  
         C35       1.0000    0.87020   0.17920   0.32210   Biso      1.000     C          0.566315  
         C36       1.0000    0.20330   0.07060   0.87959   Biso      1.000     C          0.101449  
         C37       1.0000    0.88480   0.37320   0.45260   Biso      1.000     C          -0.145775           
         C38       1.0000    0.36990   0.03680   0.82130   Biso      1.000     C          -0.018056           
         C39       1.0000    0.92260   0.29730   0.41961   Biso      1.000     C          -0.096651           
         C40       1.0000    0.82850   0.26140   0.35869   Biso      1.000     C          -0.021255           
         C41       1.0000    0.35280   0.17100   0.09773   Biso      1.000     C          0.250467  
         C42       1.0000    0.37350   0.15180   0.98124   Biso      1.000     C          0.22218600000000002           
         C43       1.0000    0.31690   0.11940   0.03675   Biso      1.000     C          -0.300618           
         C44       1.0000    0.85780   0.60040   0.86687   Biso      1.000     C          0.576001  
         C45       1.0000    0.36750   0.35240   0.46997   Biso      1.000     C          -0.206533           
         C46       1.0000    0.53660   0.76780   0.01364   Biso      1.000     C          -0.29779  
         C47       1.0000    0.62650   0.84820   0.01876   Biso      1.000     C          0.22218600000000002           
         C48       1.0000    0.24830   0.58480   0.57316   Biso      1.000     C          0.07875800000000001           
         C49       1.0000    0.68310   0.88060   0.96325   Biso      1.000     C          -0.300619           
         C50       1.0000    0.34290   0.62220   0.63375   Biso      1.000     C          -0.153751           
         C51       1.0000    0.30350   0.69660   0.66731   Biso      1.000     C          -0.119952           
         C52       1.0000    0.17150   0.73860   0.64131   Biso      1.000     C          -0.021256           
         C53       1.0000    0.07740   0.70270   0.58039   Biso      1.000     C          -0.096651           
         C54       1.0000    0.11520   0.62680   0.54740   Biso      1.000     C          -0.145775           
         C55       1.0000    0.12980   0.82080   0.67790   Biso      1.000     C          0.566315  
         C56       1.0000    0.50370   0.29350   0.58118   Biso      1.000     C          0.074787  
         C57       1.0000    0.50210   0.27900   0.64990   Biso      1.000     C          -0.159887           
         C58       1.0000    0.59940   0.22090   0.68774   Biso      1.000     C          -0.12189900000000001          
         C59       1.0000    0.69970   0.17440   0.65778   Biso      1.000     C          -0.016182           
         C60       1.0000    0.70010   0.18810   0.58920   Biso      1.000     C          -0.102247           
         C61       1.0000    0.60530   0.24710   0.55197   Biso      1.000     C          -0.143153           
         C62       1.0000    0.50190   0.71890   0.95103   Biso      1.000     C          0.230859  
         C63       1.0000    0.55650   0.74860   0.89493   Biso      1.000     C          -0.236069           
         C64       1.0000    0.40760   0.36050   0.54163   Biso      1.000     C          0.089443  
         C65       1.0000    0.64720   0.82900   0.90227   Biso      1.000     C          0.250469  
         C66       1.0000    0.24510   0.48490   0.24712   Biso      1.000     C          -0.115222           
         C67       1.0000    0.60980   0.86410   0.77742   Biso      1.000     C          -0.105698           
         C68       1.0000    0.27680   0.48890   0.31811   Biso      1.000     C          -0.151472           
         C69       1.0000    0.70550   0.89600   0.73832   Biso      1.000     C          -0.011581999999999999         
         C70       1.0000    0.25630   0.41250   0.35518   Biso      1.000     C          0.086204  
         C71       1.0000    0.84190   0.89250   0.84038   Biso      1.000     C          0.094571  
         C72       1.0000    0.20460   0.33120   0.31876   Biso      1.000     C          -0.15029800000000001          
         C73       1.0000    0.42110   0.55590   0.91690   Biso      1.000     C          -0.09579  
         C74       1.0000    0.81090   0.59610   0.78944   Biso      1.000     C          -0.042419           
         C75       1.0000    0.17090   0.32710   0.24768   Biso      1.000     C          -0.106064           
         C76       1.0000    0.29130   0.41920   0.43187   Biso      1.000     C          0.091324  
         C77       1.0000    0.27680   0.62860   0.97112   Biso      1.000     C          0.109826  
         C78       1.0000    0.25350   0.49430   0.46647   Biso      1.000     C          -0.206673           
         C79       1.0000    0.55030   0.92170   0.11980   Biso      1.000     C          -0.12039000000000001          
         C80       1.0000    0.28860   0.50340   0.53790   Biso      1.000     C          0.093793  
         C81       1.0000    0.63010   0.96320   0.17870   Biso      1.000     C          -0.018056           
         C82       1.0000    0.36370   0.43530   0.57479   Biso      1.000     C          -0.214243           
         C83       1.0000    0.79670   0.92940   0.12041   Biso      1.000     C          0.101449  
         C84       1.0000    0.30250   0.50080   0.92650   Biso      1.000     C          -0.041012           
         Cd1       1.0000    0.95981   0.02052   0.27183   Biso      1.000     Cd          0.858303  
         Cd2       1.0000    0.04019   0.97948   0.72817   Biso      1.000     Cd          0.858303  
         Cd3       1.0000    0.00000   0.50000   0.00000   Biso      1.000     Cd          0.922343  
         H1        1.0000    0.49400   0.15320   0.23700   Biso      1.000     H          0.13983099999999998           
         H2        1.0000    0.68750   0.45640   0.65830   Biso      1.000     H          0.11060999999999999           
         H3        1.0000    0.73890   0.46340   0.77660   Biso      1.000     H          0.111614  
         H4        1.0000    0.50600   0.84680   0.76300   Biso      1.000     H          0.13983199999999998           
         H5        1.0000    0.67750   0.90510   0.69140   Biso      1.000     H          0.135759  
         H6        1.0000    0.31250   0.54360   0.34170   Biso      1.000     H          0.11060999999999999           
         H7        1.0000    0.92410   0.89780   0.87800   Biso      1.000     H          0.100824  
         H8        1.0000    0.49880   0.54120   0.89470   Biso      1.000     H          0.145068  
         H9        1.0000    0.19260   0.27910   0.34250   Biso      1.000     H          0.11773900000000001           
         H10       1.0000    0.28520   0.44020   0.91220   Biso      1.000     H          0.123017  
         H11       1.0000    0.13550   0.27230   0.22420   Biso      1.000     H          0.105447  
         H12       1.0000    0.23920   0.67520   0.99360   Biso      1.000     H          0.105807  
         H13       1.0000    0.44450   0.91030   0.10690   Biso      1.000     H          0.14158900000000002           
         H14       1.0000    0.20360   0.53940   0.44120   Biso      1.000     H          0.119973  
         H15       1.0000    0.58720   0.98540   0.21410   Biso      1.000     H          0.12649100000000002           
         H16       1.0000    0.88900   0.92320   0.10680   Biso      1.000     H          0.112179  
         H17       1.0000    0.38520   0.43990   0.62270   Biso      1.000     H          0.113848  
         H18       1.0000    0.53300   0.71540   0.85320   Biso      1.000     H          0.164305  
         H19       1.0000    0.50020   0.74690   0.05140   Biso      1.000     H          0.152758  
         H20       1.0000    0.39200   0.30160   0.44720   Biso      1.000     H          0.121393  
         H21       1.0000    0.74280   0.93490   0.96700   Biso      1.000     H          0.148545  
         H22       1.0000    0.43390   0.59640   0.65170   Biso      1.000     H          0.104247  
         H23       1.0000    0.36710   0.71910   0.70830   Biso      1.000     H          0.10065299999999999           
         H24       1.0000    0.98830   0.73000   0.56170   Biso      1.000     H          0.117522  
         H25       1.0000    0.05010   0.60340   0.50710   Biso      1.000     H          0.11396700000000001           
         H26       1.0000    0.43450   0.30870   0.67100   Biso      1.000     H          0.11167200000000001           
         H27       1.0000    0.59710   0.21310   0.73380   Biso      1.000     H          0.101618  
         H28       1.0000    0.76540   0.15700   0.56780   Biso      1.000     H          0.120768  
         H29       1.0000    0.60990   0.25590   0.50620   Biso      1.000     H          0.111223  
         H30       1.0000    0.80740   0.72090   0.65750   Biso      1.000     H          0.11773800000000001           
         H31       1.0000    0.32250   0.09490   0.30860   Biso      1.000     H          0.135761  
         H32       1.0000    0.26110   0.53660   0.22340   Biso      1.000     H          0.111614  
         H33       1.0000    0.07590   0.10220   0.12200   Biso      1.000     H          0.100824  
         H34       1.0000    0.86450   0.72770   0.77580   Biso      1.000     H          0.105448  
         H35       1.0000    0.39010   0.74410   0.49380   Biso      1.000     H          0.111223  
         H36       1.0000    0.49980   0.25310   0.94860   Biso      1.000     H          0.152758  
         H37       1.0000    0.23460   0.84300   0.43220   Biso      1.000     H          0.120768  
         H38       1.0000    0.40290   0.78690   0.26620   Biso      1.000     H          0.101618  
         H39       1.0000    0.46700   0.28460   0.14680   Biso      1.000     H          0.164305  
         H40       1.0000    0.56550   0.69130   0.32900   Biso      1.000     H          0.11167200000000001           
         H41       1.0000    0.94990   0.39660   0.49290   Biso      1.000     H          0.11396700000000001           
         H42       1.0000    0.11100   0.07680   0.89320   Biso      1.000     H          0.112179  
         H43       1.0000    0.01170   0.27000   0.43830   Biso      1.000     H          0.117522  
         H44       1.0000    0.25720   0.06510   0.03300   Biso      1.000     H          0.148545  
         H45       1.0000    0.63290   0.28090   0.29170   Biso      1.000     H          0.10065299999999999           
         H46       1.0000    0.79640   0.46060   0.55880   Biso      1.000     H          0.119973  
         H47       1.0000    0.41280   0.01460   0.78590   Biso      1.000     H          0.12649100000000002           
         H48       1.0000    0.61480   0.56010   0.37730   Biso      1.000     H          0.113847  
         H49       1.0000    0.71480   0.55980   0.08780   Biso      1.000     H          0.123018  
         H50       1.0000    0.50120   0.45880   0.10530   Biso      1.000     H          0.145066  
         H51       1.0000    0.76080   0.32480   0.00640   Biso      1.000     H          0.105807  
         H52       1.0000    0.56610   0.40360   0.34830   Biso      1.000     H          0.104247  
         H53       1.0000    0.55550   0.08970   0.89310   Biso      1.000     H          0.14158900000000002           
         H54       1.0000    0.60800   0.69840   0.55280   Biso      1.000     H          0.121393  
         N1        1.0000    0.14910   0.08661   0.22215   Biso      1.000     N          -0.255602           
         N2        1.0000    0.78450   0.96800   0.17891   Biso      1.000     N          -0.248446           
         N3        1.0000    0.30290   0.13790   0.15669   Biso      1.000     N          -0.005836           
         N4        1.0000    0.65800   0.89940   0.08237   Biso      1.000     N          0.005257  
         N5        1.0000    0.21110   0.54700   0.96044   Biso      1.000     N          -0.25393899999999997          
         N6        1.0000    0.40420   0.63780   0.94616   Biso      1.000     N          0.021949  
         N7        1.0000    0.85090   0.91339   0.77785   Biso      1.000     N          -0.255605           
         N8        1.0000    0.69710   0.86210   0.84331   Biso      1.000     N          -0.005834000000000001         
         N9        1.0000    0.59580   0.36220   0.05384   Biso      1.000     N          0.021948  
         N10       1.0000    0.34200   0.10060   0.91763   Biso      1.000     N          0.005257  
         N11       1.0000    0.21550   0.03200   0.82109   Biso      1.000     N          -0.248446           
         N12       1.0000    0.78890   0.45300   0.03956   Biso      1.000     N          -0.253936           
         O1        1.0000    0.91490   0.67361   0.89670   Biso      1.000     O          -0.627926           
         O2        1.0000    0.01890   0.86181   0.64781   Biso      1.000     O          -0.540702           
         O3        1.0000    0.83980   0.52699   0.89670   Biso      1.000     O          -0.629944           
         O4        1.0000    0.98110   0.13819   0.35219   Biso      1.000     O          -0.540701           
         O5        1.0000    0.85100   0.12557   0.76158   Biso      1.000     O          -0.6405890000000001           
         O6        1.0000    0.08510   0.32639   0.10330   Biso      1.000     O          -0.627926           
         O7        1.0000    0.14900   0.87443   0.23842   Biso      1.000     O          -0.6405890000000001           
         O8        1.0000    0.16020   0.47301   0.10330   Biso      1.000     O          -0.629944           
         O9        1.0000    0.86640   0.05776   0.66351   Biso      1.000     O          -0.558276           
         O10       1.0000    0.13360   0.94224   0.33649   Biso      1.000     O          -0.558276           
         O11       1.0000    0.20780   0.84482   0.73636   Biso      1.000     O          -0.610947           
         O12       1.0000    0.79220   0.15518   0.26364   Biso      1.000     O          -0.610947 