
##########################################################################
#               Crystallographic Information Format file
#               Produced by PyCifRW module
#
#  This is a CIF file.  CIF has been adopted by the International
#  Union of Crystallography as the standard for data archiving and
#  transmission.
#
#  For information on this file format, follow the CIF links at
#  http://www.iucr.org
##########################################################################

data_image0

_cell_length_a                          13.1717
_cell_length_b                          13.1901
_cell_length_c                          16.2347
_cell_angle_alpha                       97.293
_cell_angle_beta                        94.437
_cell_angle_gamma                       90.523
_symmetry_space_group_name_H-M          'P 1'
_symmetry_int_tables_number             1
loop_
  _symmetry_equiv_pos_as_xyz
         'x, y, z' 
loop_
  _atom_site_label
  _atom_site_occupancy
  _atom_site_fract_x
  _atom_site_fract_y
  _atom_site_fract_z
  _atom_site_thermal_displace_type
  _atom_site_B_iso_or_equiv
  _atom_site_type_symbol
  _atom_site_charge
         C1        1.0000    0.68560   0.13070   0.75970   Biso      1.000     C          -0.134256           
         C2        1.0000    0.63810   0.75900   0.32590   Biso      1.000     C          -0.108785           
         C3        1.0000    0.64850   0.75420   0.41680   Biso      1.000     C          0.146293  
         C4        1.0000    0.74190   0.76210   0.46220   Biso      1.000     C          -0.164301           
         C5        1.0000    0.74660   0.76340   0.54790   Biso      1.000     C          0.095637  
         C6        1.0000    0.57220   0.74420   0.54420   Biso      1.000     C          0.100712  
         C7        1.0000    0.56170   0.74340   0.45920   Biso      1.000     C          -0.167539           
         C8        1.0000    0.63360   0.23260   0.21470   Biso      1.000     C          -0.031651           
         C9        1.0000    0.69080   0.23490   0.14690   Biso      1.000     C          -0.135541           
         C10       1.0000    0.79760   0.23680   0.15590   Biso      1.000     C          0.075806  
         C11       1.0000    0.85800   0.24390   0.08860   Biso      1.000     C          -0.126485           
         C12       1.0000    0.96250   0.24420   0.10020   Biso      1.000     C          -0.090642           
         C13       1.0000    0.01130   0.23790   0.17910   Biso      1.000     C          -0.036227           
         C14       1.0000    0.95530   0.23160   0.24570   Biso      1.000     C          -0.130244           
         C15       1.0000    0.84720   0.23280   0.23640   Biso      1.000     C          0.076802  
         C16       1.0000    0.78740   0.22710   0.30450   Biso      1.000     C          -0.119244           
         C17       1.0000    0.68390   0.22840   0.29400   Biso      1.000     C          -0.097139           
         C18       1.0000    0.52010   0.23440   0.20370   Biso      1.000     C          0.589372  
         C19       1.0000    0.12650   0.23460   0.19040   Biso      1.000     C          0.583624  
         C20       1.0000    0.33170   0.91970   0.17350   Biso      1.000     C          -0.042682           
         C21       1.0000    0.95430   0.36880   0.59140   Biso      1.000     C          -0.100057           
         C22       1.0000    0.05230   0.52790   0.40100   Biso      1.000     C          -0.119709           
         C23       1.0000    0.01850   0.47230   0.46450   Biso      1.000     C          0.083697  
         C24       1.0000    0.02160   0.36540   0.45800   Biso      1.000     C          -0.131681           
         C25       1.0000    0.71370   0.76320   0.27840   Biso      1.000     C          -0.11921  
         C26       1.0000    0.99050   0.31290   0.52040   Biso      1.000     C          -0.036994           
         C27       1.0000    0.61350   0.80610   0.06240   Biso      1.000     C          0.08938   
         C28       1.0000    0.70390   0.76850   0.18790   Biso      1.000     C          0.150566  
         C29       1.0000    0.70150   0.39560   0.70610   Biso      1.000     C          -0.092971           
         C30       1.0000    0.70370   0.29180   0.69740   Biso      1.000     C          -0.134064           
         C31       1.0000    0.68500   0.23840   0.76600   Biso      1.000     C          0.076016  
         C32       1.0000    0.66380   0.29500   0.84240   Biso      1.000     C          0.074687  
         C33       1.0000    0.66830   0.08030   0.82650   Biso      1.000     C          -0.041849           
         C34       1.0000    0.87350   0.76540   0.80960   Biso      1.000     C          0.583797  
         C35       1.0000    0.47990   0.76560   0.79630   Biso      1.000     C          0.589329  
         C36       1.0000    0.31610   0.77160   0.70600   Biso      1.000     C          -0.097749           
         C37       1.0000    0.21260   0.77290   0.69550   Biso      1.000     C          -0.119331           
         C38       1.0000    0.15280   0.76720   0.76360   Biso      1.000     C          0.076823  
         C39       1.0000    0.04470   0.76840   0.75430   Biso      1.000     C          -0.129669           
         C40       1.0000    0.98870   0.76210   0.82090   Biso      1.000     C          -0.036294           
         C41       1.0000    0.03750   0.75580   0.89980   Biso      1.000     C          -0.090826           
         C42       1.0000    0.14200   0.75610   0.91140   Biso      1.000     C          -0.126202           
         C43       1.0000    0.20240   0.76320   0.84410   Biso      1.000     C          0.075829  
         C44       1.0000    0.30920   0.76510   0.85310   Biso      1.000     C          -0.134947           
         C45       1.0000    0.36640   0.76740   0.78530   Biso      1.000     C          -0.031138           
         C46       1.0000    0.64670   0.24180   0.91050   Biso      1.000     C          -0.132862           
         C47       1.0000    0.65000   0.13870   0.90340   Biso      1.000     C          -0.104807           
         C48       1.0000    0.67400   0.96570   0.81900   Biso      1.000     C          0.574743  
         C49       1.0000    0.67900   0.56690   0.79010   Biso      1.000     C          0.589338  
         C50       1.0000    0.77330   0.74360   0.05540   Biso      1.000     C          0.099471  
         C51       1.0000    0.78330   0.74050   0.14030   Biso      1.000     C          -0.174795           
         C52       1.0000    0.61830   0.80390   0.14820   Biso      1.000     C          -0.168873           
         C53       1.0000    0.68030   0.45360   0.78230   Biso      1.000     C          -0.022039           
         C54       1.0000    0.99700   0.19940   0.51300   Biso      1.000     C          0.576012  
         C55       1.0000    0.46450   0.97850   0.60580   Biso      1.000     C          -0.123382           
         C56       1.0000    0.10330   0.01830   0.75810   Biso      1.000     C          0.095724  
         C57       1.0000    0.31440   0.86930   0.24030   Biso      1.000     C          -0.134043           
         C58       1.0000    0.31500   0.76160   0.23400   Biso      1.000     C          0.07605   
         C59       1.0000    0.29630   0.70820   0.30260   Biso      1.000     C          -0.133925           
         C60       1.0000    0.29850   0.60440   0.29390   Biso      1.000     C          -0.092897           
         C61       1.0000    0.31970   0.54640   0.21770   Biso      1.000     C          -0.022258           
         C62       1.0000    0.33810   0.59750   0.15120   Biso      1.000     C          -0.126344           
         C63       1.0000    0.33620   0.70500   0.15760   Biso      1.000     C          0.074696  
         C64       1.0000    0.35330   0.75820   0.08950   Biso      1.000     C          -0.132429           
         C65       1.0000    0.35000   0.86130   0.09660   Biso      1.000     C          -0.104318           
         C66       1.0000    0.32600   0.03430   0.18100   Biso      1.000     C          0.575262  
         C67       1.0000    0.11360   0.02080   0.84410   Biso      1.000     C          -0.173665           
         C68       1.0000    0.32100   0.43310   0.20990   Biso      1.000     C          0.5896    
         C69       1.0000    0.21670   0.25950   0.85970   Biso      1.000     C          -0.174876           
         C70       1.0000    0.29610   0.23150   0.81210   Biso      1.000     C          0.15069   
         C71       1.0000    0.38170   0.19610   0.85180   Biso      1.000     C          -0.168887           
         C72       1.0000    0.38650   0.19390   0.93760   Biso      1.000     C          0.089548  
         C73       1.0000    0.28630   0.23680   0.72160   Biso      1.000     C          -0.119322           
         C74       1.0000    0.36190   0.24100   0.67410   Biso      1.000     C          -0.108582           
         C75       1.0000    0.35150   0.24580   0.58320   Biso      1.000     C          0.146242  
         C76       1.0000    0.25810   0.23790   0.53780   Biso      1.000     C          -0.164257           
         C77       1.0000    0.25340   0.23660   0.45210   Biso      1.000     C          0.095802  
         C78       1.0000    0.42780   0.25580   0.45580   Biso      1.000     C          0.100675  
         C79       1.0000    0.43830   0.25660   0.54080   Biso      1.000     C          -0.167515           
         C80       1.0000    0.22670   0.25640   0.94460   Biso      1.000     C          0.099536  
         C81       1.0000    0.02710   0.01700   0.88780   Biso      1.000     C          0.146163  
         C82       1.0000    0.93360   0.01470   0.84160   Biso      1.000     C          -0.163457           
         C83       1.0000    0.92880   0.01290   0.75630   Biso      1.000     C          0.094508  
         C84       1.0000    0.52520   0.99300   0.53920   Biso      1.000     C          0.071224  
         C85       1.0000    0.63240   0.99350   0.54780   Biso      1.000     C          -0.137813           
         C86       1.0000    0.68890   0.00750   0.48250   Biso      1.000     C          -0.038546           
         C87       1.0000    0.80240   0.00320   0.49230   Biso      1.000     C          0.580044  
         C88       1.0000    0.96260   0.98720   0.02220   Biso      1.000     C          -0.114755           
         C89       1.0000    0.07120   0.98710   0.24370   Biso      1.000     C          0.094143  
         C90       1.0000    0.06640   0.98530   0.15840   Biso      1.000     C          -0.163284           
         C91       1.0000    0.97290   0.98300   0.11220   Biso      1.000     C          0.145788  
         C92       1.0000    0.88640   0.97920   0.15590   Biso      1.000     C          -0.173444           
         C93       1.0000    0.89670   0.98170   0.24190   Biso      1.000     C          0.095552  
         C94       1.0000    0.04570   0.63120   0.40860   Biso      1.000     C          -0.1001   
         C95       1.0000    0.94770   0.47210   0.59900   Biso      1.000     C          -0.119725           
         C96       1.0000    0.98150   0.52770   0.53550   Biso      1.000     C          0.083698  
         C97       1.0000    0.97840   0.63460   0.54200   Biso      1.000     C          -0.131706           
         C98       1.0000    0.00950   0.68710   0.47960   Biso      1.000     C          -0.0372   
         C99       1.0000    0.00300   0.80060   0.48700   Biso      1.000     C          0.575914  
         C100      1.0000    0.36160   0.97850   0.59550   Biso      1.000     C          -0.097935           
         C101      1.0000    0.53550   0.02150   0.39420   Biso      1.000     C          -0.122733           
         C102      1.0000    0.47480   0.00700   0.46080   Biso      1.000     C          0.071188  
         C103      1.0000    0.36760   0.00650   0.45220   Biso      1.000     C          -0.137928           
         C104      1.0000    0.31110   0.99250   0.51750   Biso      1.000     C          -0.038198           
         C105      1.0000    0.19760   0.99680   0.50770   Biso      1.000     C          0.579993  
         C106      1.0000    0.03740   0.01280   0.97780   Biso      1.000     C          -0.115058           
         C107      1.0000    0.63840   0.02150   0.40450   Biso      1.000     C          -0.098045           
         C108      1.0000    0.66190   0.40250   0.84880   Biso      1.000     C          -0.126476           
         Co1       1.0000    0.32060   0.23846   0.28227   Biso      1.000     Co          0.689391  
         Co2       1.0000    0.32505   0.22875   0.11183   Biso      1.000     Co          0.680788  
         Co3       1.0000    0.99773   0.00508   0.58591   Biso      1.000     Co          0.688128  
         Co4       1.0000    0.67495   0.77125   0.88817   Biso      1.000     Co          0.678007  
         Co5       1.0000    0.00227   0.99492   0.41409   Biso      1.000     Co          0.688913  
         Co6       1.0000    0.67940   0.76154   0.71773   Biso      1.000     Co          0.686045  
         H1        1.0000    0.44388   0.24115   0.70236   Biso      1.000     H          0.091924  
         H2        1.0000    0.18531   0.23248   0.57082   Biso      1.000     H          0.111297  
         H3        1.0000    0.14236   0.28536   0.82885   Biso      1.000     H          0.114697  
         H4        1.0000    0.17669   0.22747   0.41403   Biso      1.000     H          0.093061  
         H5        1.0000    0.49794   0.26383   0.41999   Biso      1.000     H          0.086438  
         H6        1.0000    0.34881   0.76472   0.91803   Biso      1.000     H          0.093362  
         H7        1.0000    0.88627   0.96769   0.98526   Biso      1.000     H          0.105108  
         H8        1.0000    0.45716   0.16387   0.97096   Biso      1.000     H          0.087554  
         H9        1.0000    0.92967   0.32737   0.64427   Biso      1.000     H          0.099785  
         H10       1.0000    0.08495   0.48531   0.34370   Biso      1.000     H          0.107556  
         H11       1.0000    0.05061   0.32172   0.39955   Biso      1.000     H          0.099809  
         H12       1.0000    0.68540   0.03283   0.35018   Biso      1.000     H          0.095553  
         H13       1.0000    0.50252   0.96660   0.66926   Biso      1.000     H          0.109479  
         H14       1.0000    0.67216   0.98193   0.61073   Biso      1.000     H          0.10878   
         H15       1.0000    0.20761   0.23750   0.68711   Biso      1.000     H          0.104114  
         H16       1.0000    0.14829   0.99014   0.28113   Biso      1.000     H          0.093187  
         H17       1.0000    0.13998   0.98571   0.12579   Biso      1.000     H          0.106185  
         H18       1.0000    0.80739   0.97406   0.12144   Biso      1.000     H          0.112433  
         H19       1.0000    0.44843   0.16868   0.81465   Biso      1.000     H          0.106849  
         H20       1.0000    0.48292   0.73401   0.42446   Biso      1.000     H          0.107674  
         H21       1.0000    0.54284   0.83613   0.02904   Biso      1.000     H          0.087698  
         H22       1.0000    0.55157   0.83132   0.18535   Biso      1.000     H          0.106765  
         H23       1.0000    0.17390   0.01938   0.72177   Biso      1.000     H          0.084856  
         H24       1.0000    0.19261   0.02594   0.87856   Biso      1.000     H          0.112387  
         H25       1.0000    0.86002   0.01429   0.87421   Biso      1.000     H          0.106271  
         H26       1.0000    0.16097   0.28064   0.98399   Biso      1.000     H          0.086708  
         H27       1.0000    0.85171   0.00986   0.71887   Biso      1.000     H          0.093398  
         H28       1.0000    0.32784   0.01807   0.38927   Biso      1.000     H          0.108815  
         H29       1.0000    0.49748   0.03340   0.33074   Biso      1.000     H          0.10957   
         H30       1.0000    0.31543   0.96710   0.65029   Biso      1.000     H          0.095382  
         H31       1.0000    0.94939   0.67828   0.60045   Biso      1.000     H          0.099844  
         H32       1.0000    0.91505   0.51469   0.65630   Biso      1.000     H          0.107589  
         H33       1.0000    0.07033   0.67263   0.35573   Biso      1.000     H          0.099763  
         H34       1.0000    0.82610   0.98062   0.27823   Biso      1.000     H          0.084746  
         H35       1.0000    0.11373   0.03231   0.01474   Biso      1.000     H          0.105266  
         H36       1.0000    0.36199   0.90250   0.04039   Biso      1.000     H          0.105488  
         H37       1.0000    0.50206   0.73617   0.58001   Biso      1.000     H          0.086162  
         H38       1.0000    0.35535   0.55271   0.08923   Biso      1.000     H          0.112368  
         H39       1.0000    0.37024   0.71411   0.02718   Biso      1.000     H          0.09809   
         H40       1.0000    0.00474   0.77471   0.69036   Biso      1.000     H          0.107014  
         H41       1.0000    0.17416   0.77866   0.63094   Biso      1.000     H          0.109636  
         H42       1.0000    0.36214   0.77396   0.64961   Biso      1.000     H          0.096831  
         H43       1.0000    0.70088   0.08544   0.69742   Biso      1.000     H          0.101182  
         H44       1.0000    0.72052   0.24741   0.63516   Biso      1.000     H          0.106736  
         H45       1.0000    0.71693   0.43815   0.65133   Biso      1.000     H          0.106257  
         H46       1.0000    0.98965   0.75038   0.95472   Biso      1.000     H          0.095596  
         H47       1.0000    0.64465   0.44729   0.91077   Biso      1.000     H          0.112336  
         H48       1.0000    0.63785   0.09868   0.96020   Biso      1.000     H          0.105472  
         H49       1.0000    0.83903   0.71936   0.01601   Biso      1.000     H          0.086465  
         H50       1.0000    0.85764   0.71464   0.17115   Biso      1.000     H          0.114765  
         H51       1.0000    0.79239   0.76250   0.31289   Biso      1.000     H          0.104077  
         H52       1.0000    0.55612   0.75885   0.29764   Biso      1.000     H          0.091875  
         H53       1.0000    0.81469   0.76752   0.42918   Biso      1.000     H          0.11121   
         H54       1.0000    0.82331   0.77253   0.58597   Biso      1.000     H          0.093108  
         H55       1.0000    0.62976   0.28589   0.97282   Biso      1.000     H          0.098015  
         H56       1.0000    0.17984   0.75054   0.97620   Biso      1.000     H          0.093368  
         H57       1.0000    0.51708   0.26599   0.57554   Biso      1.000     H          0.107686  
         H58       1.0000    0.82016   0.24946   0.02380   Biso      1.000     H          0.093261  
         H59       1.0000    0.28307   0.56185   0.34867   Biso      1.000     H          0.106294  
         H60       1.0000    0.27948   0.75259   0.36484   Biso      1.000     H          0.106768  
         H61       1.0000    0.29912   0.91456   0.30258   Biso      1.000     H          0.101049  
         H62       1.0000    0.63676   0.22608   0.34976   Biso      1.000     H          0.096476  
         H63       1.0000    0.82584   0.22134   0.36906   Biso      1.000     H          0.109474  
         H64       1.0000    0.99526   0.22529   0.30964   Biso      1.000     H          0.106926  
         H65       1.0000    0.01035   0.24962   0.04528   Biso      1.000     H          0.095537  
         H66       1.0000    0.65119   0.23528   0.08197   Biso      1.000     H          0.092882  
         N1        1.0000    0.33690   0.24580   0.41060   Biso      1.000     N          -0.203951           
         N2        1.0000    0.30990   0.22630   0.98400   Biso      1.000     N          -0.198283           
         N3        1.0000    0.01280   0.01460   0.71420   Biso      1.000     N          -0.203626           
         N4        1.0000    0.98720   0.98540   0.28580   Biso      1.000     N          -0.203759           
         N5        1.0000    0.69010   0.77370   0.01600   Biso      1.000     N          -0.197694           
         N6        1.0000    0.66310   0.75420   0.58940   Biso      1.000     N          -0.203158           
         O1        1.0000    0.99740   0.15870   0.57900   Biso      1.000     O          -0.512307           
         O2        1.0000    0.15070   0.00270   0.57230   Biso      1.000     O          -0.508981           
         O3        1.0000    0.68110   0.60830   0.72420   Biso      1.000     O          -0.5056   
         O4        1.0000    0.67430   0.61540   0.86180   Biso      1.000     O          -0.504483           
         O5        1.0000    0.67320   0.92570   0.88510   Biso      1.000     O          -0.506673           
         O6        1.0000    0.31890   0.39170   0.27580   Biso      1.000     O          -0.504756           
         O7        1.0000    0.32570   0.38460   0.13820   Biso      1.000     O          -0.502777           
         O8        1.0000    0.32680   0.07430   0.11490   Biso      1.000     O          -0.506662           
         O9        1.0000    0.32170   0.08210   0.25290   Biso      1.000     O          -0.509759           
         O10       1.0000    0.17300   0.22880   0.12490   Biso      1.000     O          -0.522216           
         O11       1.0000    0.16710   0.23600   0.26220   Biso      1.000     O          -0.484736           
         O12       1.0000    0.47860   0.23250   0.13150   Biso      1.000     O          -0.491876           
         O13       1.0000    0.99570   0.84880   0.55820   Biso      1.000     O          -0.505963           
         O14       1.0000    0.67830   0.91790   0.74710   Biso      1.000     O          -0.510925           
         O15       1.0000    0.82700   0.77120   0.87510   Biso      1.000     O          -0.514997           
         O16       1.0000    0.83290   0.76400   0.73780   Biso      1.000     O          -0.487849           
         O17       1.0000    0.52730   0.76230   0.73130   Biso      1.000     O          -0.508893           
         O18       1.0000    0.84420   0.00530   0.56520   Biso      1.000     O          -0.497332           
         O19       1.0000    0.00260   0.84130   0.42100   Biso      1.000     O          -0.512266           
         O20       1.0000    0.00430   0.15120   0.44180   Biso      1.000     O          -0.507298           
         O21       1.0000    0.15580   0.99470   0.43480   Biso      1.000     O          -0.497543           
         O22       1.0000    0.84930   0.99730   0.42770   Biso      1.000     O          -0.508246           
         O23       1.0000    0.47270   0.23770   0.26870   Biso      1.000     O          -0.516645           
         O24       1.0000    0.52140   0.76750   0.86850   Biso      1.000     O          -0.494393 