
##########################################################################
#               Crystallographic Information Format file
#               Produced by PyCifRW module
#
#  This is a CIF file.  CIF has been adopted by the International
#  Union of Crystallography as the standard for data archiving and
#  transmission.
#
#  For information on this file format, follow the CIF links at
#  http://www.iucr.org
##########################################################################

data_image0

_cell_length_a                          18.326
_cell_length_b                          19.033
_cell_length_c                          12.529
_cell_angle_alpha                       90
_cell_angle_beta                        90
_cell_angle_gamma                       90
_symmetry_space_group_name_H-M          'P 1'
_symmetry_int_tables_number             1
loop_
  _symmetry_equiv_pos_as_xyz
         'x, y, z' 
loop_
  _atom_site_label
  _atom_site_occupancy
  _atom_site_fract_x
  _atom_site_fract_y
  _atom_site_fract_z
  _atom_site_thermal_displace_type
  _atom_site_B_iso_or_equiv
  _atom_site_type_symbol
  _atom_site_charge
         C1        1.0000    0.00000   0.00000   0.99750   Biso      1.000     C          0.078486  
         C2        1.0000    0.41410   0.35800   0.71930   Biso      1.000     C          -0.220151           
         C3        1.0000    0.42230   0.31220   0.63370   Biso      1.000     C          0.002478  
         C4        1.0000    0.36040   0.29810   0.55960   Biso      1.000     C          0.623088  
         C5        1.0000    0.04760   0.20760   0.31530   Biso      1.000     C          0.00044800000000000005        
         C6        1.0000    0.98910   0.22040   0.38420   Biso      1.000     C          -0.163645           
         C7        1.0000    0.01950   0.06350   0.06700   Biso      1.000     C          -0.08142100000000001          
         C8        1.0000    0.12150   0.23910   0.33640   Biso      1.000     C          0.628758  
         C9        1.0000    0.75360   0.08110   0.62590   Biso      1.000     C          0.628704  
         C10       1.0000    0.78850   0.01470   0.66610   Biso      1.000     C          0.005142  
         C11       1.0000    0.77780   0.95170   0.61320   Biso      1.000     C          -0.149759           
         C12       1.0000    0.81240   0.89110   0.64910   Biso      1.000     C          0.0017920000000000002         
         C13       1.0000    0.85670   0.89380   0.73840   Biso      1.000     C          -0.216435           
         C14       1.0000    0.86670   0.95700   0.79040   Biso      1.000     C          0.267395  
         C15       1.0000    0.83410   0.01840   0.75590   Biso      1.000     C          -0.248583           
         C16       1.0000    0.80340   0.82270   0.58780   Biso      1.000     C          0.6208100000000001  
         C17       1.0000    0.03880   0.16120   0.22890   Biso      1.000     C          -0.249565           
         C18       1.0000    0.93360   0.01800   0.92880   Biso      1.000     C          -0.064824           
         C19       1.0000    0.47140   0.37260   0.78540   Biso      1.000     C          0.270254  
         C20       1.0000    0.97140   0.12740   0.21460   Biso      1.000     C          0.27024899999999996           
         C21       1.0000    0.33410   0.48160   0.24410   Biso      1.000     C          -0.248583           
         C22       1.0000    0.36670   0.54300   0.20960   Biso      1.000     C          0.267394  
         C23       1.0000    0.50000   0.50000   0.00250   Biso      1.000     C          0.078486  
         C24       1.0000    0.35670   0.60620   0.26160   Biso      1.000     C          -0.216437           
         C25       1.0000    0.31240   0.60890   0.35090   Biso      1.000     C          0.001796  
         C26       1.0000    0.27780   0.54830   0.38680   Biso      1.000     C          -0.14976099999999998          
         C27       1.0000    0.28850   0.48530   0.33390   Biso      1.000     C          0.005145  
         C28       1.0000    0.25360   0.41890   0.37410   Biso      1.000     C          0.628704  
         C29       1.0000    0.62150   0.26090   0.66360   Biso      1.000     C          0.628758  
         C30       1.0000    0.86040   0.20190   0.44040   Biso      1.000     C          0.623088  
         C31       1.0000    0.92230   0.18780   0.36630   Biso      1.000     C          0.002478  
         C32       1.0000    0.51950   0.43650   0.93300   Biso      1.000     C          -0.08142100000000001          
         C33       1.0000    0.91410   0.14200   0.28070   Biso      1.000     C          -0.220146           
         C34       1.0000    0.48910   0.27960   0.61580   Biso      1.000     C          -0.163644           
         C35       1.0000    0.54760   0.29240   0.68470   Biso      1.000     C          0.00044800000000000005        
         C36       1.0000    0.53880   0.33880   0.77110   Biso      1.000     C          -0.249565           
         C37       1.0000    0.43360   0.48200   0.07120   Biso      1.000     C          -0.064824           
         C38       1.0000    0.30340   0.67730   0.41220   Biso      1.000     C          0.6208100000000001  
         C39       1.0000    0.69660   0.32270   0.41220   Biso      1.000     C          0.6208100000000001  
         C40       1.0000    0.01090   0.77960   0.38420   Biso      1.000     C          -0.163645           
         C41       1.0000    0.58590   0.64200   0.71930   Biso      1.000     C          -0.220151           
         C42       1.0000    0.57770   0.68780   0.63370   Biso      1.000     C          0.002478  
         C43       1.0000    0.63960   0.70190   0.55960   Biso      1.000     C          0.623088  
         C44       1.0000    0.98050   0.93650   0.06700   Biso      1.000     C          -0.08142100000000001          
         C45       1.0000    0.87850   0.76090   0.33640   Biso      1.000     C          0.628758  
         C46       1.0000    0.24640   0.91890   0.62590   Biso      1.000     C          0.628704  
         C47       1.0000    0.21150   0.98530   0.66610   Biso      1.000     C          0.005142  
         C48       1.0000    0.22220   0.04830   0.61320   Biso      1.000     C          -0.149759           
         C49       1.0000    0.18760   0.10890   0.64910   Biso      1.000     C          0.0017920000000000002         
         C50       1.0000    0.14330   0.10620   0.73840   Biso      1.000     C          -0.216435           
         C51       1.0000    0.13330   0.04300   0.79040   Biso      1.000     C          0.267395  
         C52       1.0000    0.16590   0.98160   0.75590   Biso      1.000     C          -0.248583           
         C53       1.0000    0.19660   0.17730   0.58780   Biso      1.000     C          0.6208100000000001  
         C54       1.0000    0.06640   0.98200   0.92880   Biso      1.000     C          -0.064824           
         C55       1.0000    0.52860   0.62740   0.78540   Biso      1.000     C          0.270254  
         C56       1.0000    0.56640   0.51800   0.07120   Biso      1.000     C          -0.064825           
         C57       1.0000    0.46120   0.66120   0.77110   Biso      1.000     C          -0.249565           
         C58       1.0000    0.45240   0.70760   0.68470   Biso      1.000     C          0.00044800000000000005        
         C59       1.0000    0.66590   0.51840   0.24410   Biso      1.000     C          -0.248583           
         C60       1.0000    0.63330   0.45700   0.20960   Biso      1.000     C          0.267394  
         C61       1.0000    0.13960   0.79810   0.44040   Biso      1.000     C          0.623088  
         C62       1.0000    0.64330   0.39380   0.26160   Biso      1.000     C          -0.216437           
         C63       1.0000    0.68760   0.39110   0.35090   Biso      1.000     C          0.001796  
         C64       1.0000    0.07770   0.81220   0.36630   Biso      1.000     C          0.002479  
         C65       1.0000    0.95240   0.79240   0.31530   Biso      1.000     C          0.00044800000000000005        
         C66       1.0000    0.72220   0.45170   0.38680   Biso      1.000     C          -0.14976099999999998          
         C67       1.0000    0.74640   0.58110   0.37410   Biso      1.000     C          0.628704  
         C68       1.0000    0.37850   0.73910   0.66360   Biso      1.000     C          0.628758  
         C69       1.0000    0.08590   0.85800   0.28070   Biso      1.000     C          -0.220152           
         C70       1.0000    0.02860   0.87260   0.21460   Biso      1.000     C          0.270254  
         C71       1.0000    0.48050   0.56350   0.93300   Biso      1.000     C          -0.08142100000000001          
         C72       1.0000    0.96120   0.83880   0.22890   Biso      1.000     C          -0.249565           
         C73       1.0000    0.51090   0.72040   0.61580   Biso      1.000     C          -0.163644           
         C74       1.0000    0.71150   0.51470   0.33390   Biso      1.000     C          0.005145  
         Cd1       1.0000    0.67404   0.16327   0.44200   Biso      1.000     Cd          1.129635  
         Cd2       1.0000    0.32596   0.83673   0.44200   Biso      1.000     Cd          1.129635  
         Cd3       1.0000    0.22880   0.75158   0.61962   Biso      1.000     Cd          1.037076  
         Cd4       1.0000    0.72880   0.74842   0.38038   Biso      1.000     Cd          1.037076  
         Cd5       1.0000    0.77120   0.24842   0.61962   Biso      1.000     Cd          1.037076  
         Cd6       1.0000    0.17404   0.33673   0.55800   Biso      1.000     Cd          1.129635  
         Cd7       1.0000    0.82596   0.66327   0.55800   Biso      1.000     Cd          1.129635  
         Cd8       1.0000    0.27120   0.25158   0.38038   Biso      1.000     Cd          1.037076  
         H1        1.0000    0.84220   0.06170   0.79180   Biso      1.000     H          0.137825  
         H2        1.0000    0.55440   0.55540   0.12330   Biso      1.000     H          0.099091  
         H3        1.0000    0.89240   0.03410   0.97380   Biso      1.000     H          0.099342  
         H4        1.0000    0.34220   0.43830   0.20820   Biso      1.000     H          0.137825  
         H5        1.0000    0.60760   0.53410   0.02620   Biso      1.000     H          0.099342  
         H6        1.0000    0.65780   0.56170   0.20820   Biso      1.000     H          0.137825  
         H7        1.0000    0.61990   0.35250   0.23640   Biso      1.000     H          0.143296  
         H8        1.0000    0.75330   0.44990   0.44740   Biso      1.000     H          0.129363  
         H9        1.0000    0.46900   0.60270   0.97820   Biso      1.000     H          0.097198  
         H10       1.0000    0.13190   0.87940   0.26800   Biso      1.000     H          0.13883399999999999           
         H11       1.0000    0.43850   0.55320   0.89000   Biso      1.000     H          0.10074   
         H12       1.0000    0.50500   0.75140   0.55700   Biso      1.000     H          0.133991  
         H13       1.0000    0.92210   0.84710   0.18090   Biso      1.000     H          0.136431  
         H14       1.0000    0.42210   0.65290   0.81910   Biso      1.000     H          0.136431  
         H15       1.0000    0.63190   0.62060   0.73200   Biso      1.000     H          0.13883399999999999           
         H16       1.0000    0.00500   0.74860   0.44300   Biso      1.000     H          0.133991  
         H17       1.0000    0.93850   0.94680   0.11000   Biso      1.000     H          0.10074   
         H18       1.0000    0.96900   0.89730   0.02180   Biso      1.000     H          0.097198  
         H19       1.0000    0.25330   0.05010   0.55260   Biso      1.000     H          0.129363  
         H20       1.0000    0.11990   0.14750   0.76360   Biso      1.000     H          0.143295  
         H21       1.0000    0.15780   0.93830   0.79180   Biso      1.000     H          0.137825  
         H22       1.0000    0.10760   0.96590   0.97380   Biso      1.000     H          0.099342  
         H23       1.0000    0.05440   0.94460   0.87670   Biso      1.000     H          0.099091  
         H24       1.0000    0.88010   0.85250   0.76360   Biso      1.000     H          0.143295  
         H25       1.0000    0.74670   0.94990   0.55260   Biso      1.000     H          0.129363  
         H26       1.0000    0.39240   0.46590   0.02620   Biso      1.000     H          0.099342  
         H27       1.0000    0.49500   0.24860   0.55700   Biso      1.000     H          0.133991  
         H28       1.0000    0.44560   0.44460   0.12330   Biso      1.000     H          0.099091  
         H29       1.0000    0.38010   0.64750   0.23640   Biso      1.000     H          0.143296  
         H30       1.0000    0.24670   0.55010   0.44740   Biso      1.000     H          0.129363  
         H31       1.0000    0.53100   0.39730   0.97820   Biso      1.000     H          0.097198  
         H32       1.0000    0.56150   0.44680   0.89000   Biso      1.000     H          0.10074   
         H33       1.0000    0.86810   0.12060   0.26800   Biso      1.000     H          0.13883299999999998           
         H34       1.0000    0.57790   0.34710   0.81910   Biso      1.000     H          0.136431  
         H35       1.0000    0.36810   0.37940   0.73200   Biso      1.000     H          0.13883299999999998           
         H36       1.0000    0.07790   0.15290   0.18090   Biso      1.000     H          0.136431  
         H37       1.0000    0.94560   0.05540   0.87670   Biso      1.000     H          0.099091  
         H38       1.0000    0.99500   0.25140   0.44300   Biso      1.000     H          0.133991  
         H39       1.0000    0.03100   0.10270   0.02180   Biso      1.000     H          0.097198  
         H40       1.0000    0.06150   0.05320   0.11000   Biso      1.000     H          0.10074   
         O1        1.0000    0.45960   0.42000   0.86600   Biso      1.000     O          -0.202376           
         O2        1.0000    0.79960   0.17360   0.41950   Biso      1.000     O          -0.641895           
         O3        1.0000    0.58440   0.45370   0.12490   Biso      1.000     O          -0.214664           
         O4        1.0000    0.32490   0.71620   0.71610   Biso      1.000     O          -0.557955           
         O5        1.0000    0.37390   0.78400   0.59310   Biso      1.000     O          -0.630416           
         O6        1.0000    0.73350   0.32543   0.49520   Biso      1.000     O          -0.555696           
         O7        1.0000    0.87250   0.23900   0.52140   Biso      1.000     O          -0.549922           
         O8        1.0000    0.66600   0.26909   0.37090   Biso      1.000     O          -0.57585  
         O9        1.0000    0.70040   0.67360   0.58050   Biso      1.000     O          -0.641895           
         O10       1.0000    0.70843   0.07585   0.55050   Biso      1.000     O          -0.569233           
         O11       1.0000    0.62750   0.73900   0.47860   Biso      1.000     O          -0.549922           
         O12       1.0000    0.79157   0.57585   0.44950   Biso      1.000     O          -0.569233           
         O13       1.0000    0.77390   0.13732   0.66970   Biso      1.000     O          -0.5785399999999999           
         O14       1.0000    0.72610   0.63732   0.33030   Biso      1.000     O          -0.5785399999999999           
         O15       1.0000    0.20843   0.42415   0.44950   Biso      1.000     O          -0.569233           
         O16       1.0000    0.37250   0.26100   0.47860   Biso      1.000     O          -0.549922           
         O17       1.0000    0.26650   0.67457   0.49520   Biso      1.000     O          -0.555696           
         O18       1.0000    0.83400   0.76909   0.62910   Biso      1.000     O          -0.57585  
         O19       1.0000    0.54040   0.58000   0.86600   Biso      1.000     O          -0.202376           
         O20       1.0000    0.12610   0.28400   0.40690   Biso      1.000     O          -0.630416           
         O21       1.0000    0.41560   0.54630   0.12490   Biso      1.000     O          -0.214664           
         O22       1.0000    0.67510   0.28380   0.71610   Biso      1.000     O          -0.557955           
         O23       1.0000    0.22610   0.86268   0.66970   Biso      1.000     O          -0.5785399999999999           
         O24       1.0000    0.29157   0.92415   0.55050   Biso      1.000     O          -0.569233           
         O25       1.0000    0.12750   0.76100   0.52140   Biso      1.000     O          -0.549922           
         O26       1.0000    0.20040   0.82640   0.41950   Biso      1.000     O          -0.641895           
         O27       1.0000    0.16600   0.23091   0.62910   Biso      1.000     O          -0.57585  
         O28       1.0000    0.23350   0.17457   0.50480   Biso      1.000     O          -0.555697           
         O29       1.0000    0.87390   0.71600   0.40690   Biso      1.000     O          -0.630416           
         O30       1.0000    0.82490   0.78380   0.28390   Biso      1.000     O          -0.557955           
         O31       1.0000    0.08440   0.04630   0.87510   Biso      1.000     O          -0.214664           
         O32       1.0000    0.04040   0.92000   0.13400   Biso      1.000     O          -0.202376           
         O33       1.0000    0.33400   0.73091   0.37090   Biso      1.000     O          -0.57585  
         O34       1.0000    0.27390   0.36268   0.33030   Biso      1.000     O          -0.5785399999999999           
         O35       1.0000    0.62610   0.21600   0.59310   Biso      1.000     O          -0.630416           
         O36       1.0000    0.95960   0.08000   0.13400   Biso      1.000     O          -0.202376           
         O37       1.0000    0.91560   0.95370   0.87510   Biso      1.000     O          -0.214664           
         O38       1.0000    0.17510   0.21620   0.28390   Biso      1.000     O          -0.557955           
         O39       1.0000    0.76650   0.82543   0.50480   Biso      1.000     O          -0.555697           
         O40       1.0000    0.29960   0.32640   0.58050   Biso      1.000     O          -0.641895 