
##########################################################################
#               Crystallographic Information Format file
#               Produced by PyCifRW module
#
#  This is a CIF file.  CIF has been adopted by the International
#  Union of Crystallography as the standard for data archiving and
#  transmission.
#
#  For information on this file format, follow the CIF links at
#  http://www.iucr.org
##########################################################################

data_image0

_cell_length_a                          12.78
_cell_length_b                          13.358
_cell_length_c                          28.668
_cell_angle_alpha                       90
_cell_angle_beta                        90
_cell_angle_gamma                       90
_symmetry_space_group_name_H-M          'P 1'
_symmetry_int_tables_number             1
loop_
  _symmetry_equiv_pos_as_xyz
         'x, y, z' 
loop_
  _atom_site_label
  _atom_site_occupancy
  _atom_site_fract_x
  _atom_site_fract_y
  _atom_site_fract_z
  _atom_site_thermal_displace_type
  _atom_site_B_iso_or_equiv
  _atom_site_type_symbol
  _atom_site_charge
         C1        1.0000    0.13140   0.89650   0.46460   Biso      1.000     C          0.646393  
         C2        1.0000    0.37000   0.35530   0.14560   Biso      1.000     C          0.578195  
         C3        1.0000    0.36540   0.33660   0.19770   Biso      1.000     C          -0.061175           
         C4        1.0000    0.35690   0.24410   0.21860   Biso      1.000     C          0.068186  
         C5        1.0000    0.33420   0.22990   0.26530   Biso      1.000     C          -0.205042           
         C6        1.0000    0.32370   0.31310   0.29450   Biso      1.000     C          0.120697  
         C7        1.0000    0.33720   0.40760   0.27500   Biso      1.000     C          -0.120081           
         C8        1.0000    0.35790   0.41950   0.22750   Biso      1.000     C          -0.070897           
         C9        1.0000    0.58940   0.34070   0.58740   Biso      1.000     C          0.550714  
         C10       1.0000    0.29490   0.29970   0.34420   Biso      1.000     C          0.084878  
         C11       1.0000    0.18050   0.22460   0.40200   Biso      1.000     C          -0.004716           
         C12       1.0000    0.23170   0.27900   0.43660   Biso      1.000     C          -0.091998           
         C13       1.0000    0.31290   0.34220   0.42610   Biso      1.000     C          -0.019462           
         C14       1.0000    0.34430   0.35340   0.37900   Biso      1.000     C          -0.131916           
         C15       1.0000    0.08940   0.15930   0.41260   Biso      1.000     C          0.55071   
         C16       1.0000    0.36860   0.39650   0.46460   Biso      1.000     C          0.646393  
         C17       1.0000    0.13000   0.14470   0.64560   Biso      1.000     C          0.578192  
         C18       1.0000    0.21440   0.23460   0.35610   Biso      1.000     C          -0.145605           
         C19       1.0000    0.41060   0.65930   0.41260   Biso      1.000     C          0.550712  
         C20       1.0000    0.15570   0.85340   0.37900   Biso      1.000     C          -0.131918           
         C21       1.0000    0.18710   0.84220   0.42610   Biso      1.000     C          -0.019464           
         C22       1.0000    0.18050   0.77540   0.90200   Biso      1.000     C          -0.004716           
         C23       1.0000    0.23170   0.72100   0.93660   Biso      1.000     C          -0.091998           
         C24       1.0000    0.31290   0.65780   0.92610   Biso      1.000     C          -0.019461           
         C25       1.0000    0.34430   0.64660   0.87900   Biso      1.000     C          -0.131918           
         C26       1.0000    0.08940   0.84070   0.91260   Biso      1.000     C          0.55071   
         C27       1.0000    0.36860   0.60350   0.96460   Biso      1.000     C          0.646388  
         C28       1.0000    0.13000   0.85530   0.14560   Biso      1.000     C          0.578195  
         C29       1.0000    0.13460   0.83660   0.19770   Biso      1.000     C          -0.061175           
         C30       1.0000    0.14310   0.74410   0.21860   Biso      1.000     C          0.068187  
         C31       1.0000    0.16580   0.72990   0.26530   Biso      1.000     C          -0.205041           
         C32       1.0000    0.17630   0.81310   0.29450   Biso      1.000     C          0.120696  
         C33       1.0000    0.16280   0.90760   0.27500   Biso      1.000     C          -0.120081           
         C34       1.0000    0.14210   0.91950   0.22750   Biso      1.000     C          -0.070896           
         C35       1.0000    0.20510   0.79970   0.34420   Biso      1.000     C          0.08488   
         C36       1.0000    0.28560   0.73460   0.35610   Biso      1.000     C          -0.145605           
         C37       1.0000    0.31950   0.72460   0.40200   Biso      1.000     C          -0.004717           
         C38       1.0000    0.26830   0.77900   0.43660   Biso      1.000     C          -0.091996           
         C39       1.0000    0.13460   0.16340   0.69770   Biso      1.000     C          -0.061173           
         C40       1.0000    0.14310   0.25590   0.71860   Biso      1.000     C          0.068186  
         C41       1.0000    0.16580   0.27010   0.76530   Biso      1.000     C          -0.205041           
         C42       1.0000    0.17630   0.18690   0.79450   Biso      1.000     C          0.120697  
         C43       1.0000    0.68710   0.34220   0.07390   Biso      1.000     C          -0.019464           
         C44       1.0000    0.65570   0.35340   0.12100   Biso      1.000     C          -0.131918           
         C45       1.0000    0.91060   0.15930   0.08740   Biso      1.000     C          0.550708  
         C46       1.0000    0.63140   0.39650   0.03540   Biso      1.000     C          0.646388  
         C47       1.0000    0.87000   0.14470   0.85440   Biso      1.000     C          0.578191  
         C48       1.0000    0.86540   0.16340   0.80230   Biso      1.000     C          -0.061172           
         C49       1.0000    0.85690   0.25590   0.78140   Biso      1.000     C          0.068187  
         C50       1.0000    0.83420   0.27010   0.73470   Biso      1.000     C          -0.205042           
         C51       1.0000    0.82370   0.18690   0.70550   Biso      1.000     C          0.120698  
         C52       1.0000    0.83720   0.09240   0.72500   Biso      1.000     C          -0.12008  
         C53       1.0000    0.85790   0.08050   0.77250   Biso      1.000     C          -0.070897           
         C54       1.0000    0.79490   0.20030   0.65580   Biso      1.000     C          0.084878  
         C55       1.0000    0.71440   0.26540   0.64390   Biso      1.000     C          -0.145604           
         C56       1.0000    0.68050   0.27540   0.59800   Biso      1.000     C          -0.004717           
         C57       1.0000    0.73170   0.22100   0.56340   Biso      1.000     C          -0.091998           
         C58       1.0000    0.81290   0.15780   0.57390   Biso      1.000     C          -0.019461           
         C59       1.0000    0.84430   0.14660   0.62100   Biso      1.000     C          -0.131914           
         C60       1.0000    0.76830   0.27900   0.06340   Biso      1.000     C          -0.091994           
         C61       1.0000    0.21440   0.76540   0.85610   Biso      1.000     C          -0.145604           
         C62       1.0000    0.81950   0.22460   0.09800   Biso      1.000     C          -0.004718           
         C63       1.0000    0.70510   0.29970   0.15580   Biso      1.000     C          0.084879  
         C64       1.0000    0.16280   0.09240   0.77500   Biso      1.000     C          -0.120079           
         C65       1.0000    0.14210   0.08050   0.72750   Biso      1.000     C          -0.070897           
         C66       1.0000    0.20510   0.20030   0.84420   Biso      1.000     C          0.084878  
         C67       1.0000    0.28560   0.26540   0.85610   Biso      1.000     C          -0.145603           
         C68       1.0000    0.31950   0.27540   0.90200   Biso      1.000     C          -0.004717           
         C69       1.0000    0.26830   0.22100   0.93660   Biso      1.000     C          -0.091997           
         C70       1.0000    0.18710   0.15780   0.92610   Biso      1.000     C          -0.019462           
         C71       1.0000    0.15570   0.14660   0.87900   Biso      1.000     C          -0.131914           
         C72       1.0000    0.41060   0.34070   0.91260   Biso      1.000     C          0.550709  
         C73       1.0000    0.13140   0.10350   0.96460   Biso      1.000     C          0.646392  
         C74       1.0000    0.63000   0.35530   0.35440   Biso      1.000     C          0.578185  
         C75       1.0000    0.63460   0.33660   0.30230   Biso      1.000     C          -0.061174           
         C76       1.0000    0.64310   0.24410   0.28140   Biso      1.000     C          0.068187  
         C77       1.0000    0.66580   0.22990   0.23470   Biso      1.000     C          -0.205042           
         C78       1.0000    0.67630   0.31310   0.20550   Biso      1.000     C          0.120697  
         C79       1.0000    0.66280   0.40760   0.22500   Biso      1.000     C          -0.12008  
         C80       1.0000    0.64210   0.41950   0.27250   Biso      1.000     C          -0.070896           
         C81       1.0000    0.78560   0.23460   0.14390   Biso      1.000     C          -0.145603           
         C82       1.0000    0.29490   0.70030   0.84420   Biso      1.000     C          0.08488   
         C83       1.0000    0.86860   0.10350   0.53540   Biso      1.000     C          0.646391  
         C84       1.0000    0.35790   0.58050   0.72750   Biso      1.000     C          -0.070897           
         C85       1.0000    0.84430   0.85340   0.12100   Biso      1.000     C          -0.131918           
         C86       1.0000    0.81290   0.84220   0.07390   Biso      1.000     C          -0.019464           
         C87       1.0000    0.73170   0.77900   0.06340   Biso      1.000     C          -0.091994           
         C88       1.0000    0.68050   0.72460   0.09800   Biso      1.000     C          -0.004717           
         C89       1.0000    0.71440   0.73460   0.14390   Biso      1.000     C          -0.145603           
         C90       1.0000    0.79490   0.79970   0.15580   Biso      1.000     C          0.084879  
         C91       1.0000    0.85790   0.91950   0.27250   Biso      1.000     C          -0.070897           
         C92       1.0000    0.83720   0.90760   0.22500   Biso      1.000     C          -0.120081           
         C93       1.0000    0.82370   0.81310   0.20550   Biso      1.000     C          0.120698  
         C94       1.0000    0.83420   0.72990   0.23470   Biso      1.000     C          -0.205042           
         C95       1.0000    0.86540   0.83660   0.30230   Biso      1.000     C          -0.061174           
         C96       1.0000    0.87000   0.85530   0.35440   Biso      1.000     C          0.578185  
         C97       1.0000    0.63140   0.60350   0.53540   Biso      1.000     C          0.64639   
         C98       1.0000    0.91060   0.84070   0.58740   Biso      1.000     C          0.550711  
         C99       1.0000    0.65570   0.64660   0.62100   Biso      1.000     C          -0.131917           
         C100      1.0000    0.68710   0.65780   0.57390   Biso      1.000     C          -0.019464           
         C101      1.0000    0.76830   0.72100   0.56340   Biso      1.000     C          -0.091995           
         C102      1.0000    0.81950   0.77540   0.59800   Biso      1.000     C          -0.004718           
         C103      1.0000    0.78560   0.76540   0.64390   Biso      1.000     C          -0.145604           
         C104      1.0000    0.70510   0.70030   0.65580   Biso      1.000     C          0.08488   
         C105      1.0000    0.64210   0.58050   0.77250   Biso      1.000     C          -0.070896           
         C106      1.0000    0.66280   0.59240   0.72500   Biso      1.000     C          -0.120082           
         C107      1.0000    0.67630   0.68690   0.70550   Biso      1.000     C          0.120698  
         C108      1.0000    0.66580   0.77010   0.73470   Biso      1.000     C          -0.205041           
         C109      1.0000    0.64310   0.75590   0.78140   Biso      1.000     C          0.068184  
         C110      1.0000    0.63460   0.66340   0.80230   Biso      1.000     C          -0.06117  
         C111      1.0000    0.63000   0.64470   0.85440   Biso      1.000     C          0.578194  
         C112      1.0000    0.58940   0.65930   0.08740   Biso      1.000     C          0.550706  
         C113      1.0000    0.86860   0.89650   0.03540   Biso      1.000     C          0.646393  
         C114      1.0000    0.85690   0.74410   0.28140   Biso      1.000     C          0.068187  
         C115      1.0000    0.35690   0.75590   0.71860   Biso      1.000     C          0.068183  
         C116      1.0000    0.32370   0.68690   0.79450   Biso      1.000     C          0.120696  
         C117      1.0000    0.33420   0.77010   0.76530   Biso      1.000     C          -0.205041           
         C118      1.0000    0.36540   0.66340   0.69770   Biso      1.000     C          -0.06117  
         C119      1.0000    0.33720   0.59240   0.77500   Biso      1.000     C          -0.12008  
         C120      1.0000    0.37000   0.64470   0.64560   Biso      1.000     C          0.578199  
         Eu1       1.0000    0.08915   0.95801   0.56996   Biso      1.000     Eu          1.428554  
         Eu2       1.0000    0.08915   0.04199   0.06996   Biso      1.000     Eu          1.428552  
         Eu3       1.0000    0.91085   0.95801   0.93004   Biso      1.000     Eu          1.428557  
         Eu4       1.0000    0.41085   0.54199   0.06996   Biso      1.000     Eu          1.428548  
         Eu5       1.0000    0.58915   0.45801   0.93004   Biso      1.000     Eu          1.428553  
         Eu6       1.0000    0.91085   0.04199   0.43004   Biso      1.000     Eu          1.42855   
         Eu7       1.0000    0.41085   0.45801   0.56996   Biso      1.000     Eu          1.428555  
         Eu8       1.0000    0.58915   0.54199   0.43004   Biso      1.000     Eu          1.428551  
         H1        1.0000    0.31770   0.30310   0.83280   Biso      1.000     H          0.124818  
         H2        1.0000    0.60160   0.60290   0.62850   Biso      1.000     H          0.126191  
         H3        1.0000    0.13300   0.01650   0.71540   Biso      1.000     H          0.129948  
         H4        1.0000    0.78960   0.72770   0.53260   Biso      1.000     H          0.131157  
         H5        1.0000    0.67400   0.16550   0.22280   Biso      1.000     H          0.144229  
         H6        1.0000    0.16760   0.03610   0.79400   Biso      1.000     H          0.129367  
         H7        1.0000    0.66760   0.46390   0.20600   Biso      1.000     H          0.129367  
         H8        1.0000    0.81770   0.80310   0.66720   Biso      1.000     H          0.124818  
         H9        1.0000    0.17400   0.33450   0.77720   Biso      1.000     H          0.144229  
         H10       1.0000    0.63300   0.48350   0.28460   Biso      1.000     H          0.129948  
         H11       1.0000    0.10160   0.10290   0.87150   Biso      1.000     H          0.126191  
         H12       1.0000    0.63300   0.51650   0.78460   Biso      1.000     H          0.129948  
         H13       1.0000    0.39840   0.60290   0.87150   Biso      1.000     H          0.126191  
         H14       1.0000    0.89840   0.10290   0.62850   Biso      1.000     H          0.126191  
         H15       1.0000    0.71040   0.22770   0.53260   Biso      1.000     H          0.131157  
         H16       1.0000    0.68230   0.30310   0.66720   Biso      1.000     H          0.124818  
         H17       1.0000    0.86700   0.01650   0.78460   Biso      1.000     H          0.129949  
         H18       1.0000    0.83240   0.03610   0.70600   Biso      1.000     H          0.129367  
         H19       1.0000    0.82600   0.33450   0.72280   Biso      1.000     H          0.144229  
         H20       1.0000    0.81770   0.19690   0.16720   Biso      1.000     H          0.124817  
         H21       1.0000    0.18230   0.80310   0.83280   Biso      1.000     H          0.124819  
         H22       1.0000    0.21040   0.72770   0.96740   Biso      1.000     H          0.131157  
         H23       1.0000    0.67400   0.83450   0.72280   Biso      1.000     H          0.144229  
         H24       1.0000    0.60160   0.39710   0.12850   Biso      1.000     H          0.126191  
         H25       1.0000    0.32600   0.83450   0.77720   Biso      1.000     H          0.14423   
         H26       1.0000    0.66760   0.53610   0.70600   Biso      1.000     H          0.129368  
         H27       1.0000    0.78960   0.27230   0.03260   Biso      1.000     H          0.131157  
         H28       1.0000    0.33240   0.53610   0.79400   Biso      1.000     H          0.129368  
         H29       1.0000    0.36700   0.51650   0.71540   Biso      1.000     H          0.12995   
         H30       1.0000    0.28960   0.22770   0.96740   Biso      1.000     H          0.131157  
         H31       1.0000    0.39840   0.39710   0.37150   Biso      1.000     H          0.126191  
         H32       1.0000    0.89840   0.89710   0.12850   Biso      1.000     H          0.126191  
         H33       1.0000    0.36700   0.48350   0.21540   Biso      1.000     H          0.129949  
         H34       1.0000    0.21040   0.27230   0.46740   Biso      1.000     H          0.131158  
         H35       1.0000    0.13300   0.98350   0.21540   Biso      1.000     H          0.129949  
         H36       1.0000    0.82600   0.66550   0.22280   Biso      1.000     H          0.144229  
         H37       1.0000    0.83240   0.96390   0.20600   Biso      1.000     H          0.129367  
         H38       1.0000    0.28960   0.77230   0.46740   Biso      1.000     H          0.131158  
         H39       1.0000    0.16760   0.96390   0.29400   Biso      1.000     H          0.129368  
         H40       1.0000    0.10160   0.89710   0.37150   Biso      1.000     H          0.126191  
         H41       1.0000    0.68230   0.69690   0.16720   Biso      1.000     H          0.124818  
         H42       1.0000    0.17400   0.66550   0.27720   Biso      1.000     H          0.14423   
         H43       1.0000    0.18230   0.19690   0.33280   Biso      1.000     H          0.124819  
         H44       1.0000    0.32600   0.16550   0.27720   Biso      1.000     H          0.14423   
         H45       1.0000    0.86700   0.98350   0.28460   Biso      1.000     H          0.129949  
         H46       1.0000    0.71040   0.77230   0.03260   Biso      1.000     H          0.131157  
         H47       1.0000    0.31770   0.69690   0.33280   Biso      1.000     H          0.124819  
         H48       1.0000    0.33240   0.46390   0.29400   Biso      1.000     H          0.129368  
         N1        1.0000    0.37740   0.84710   0.69170   Biso      1.000     N          0.537568  
         N2        1.0000    0.62260   0.15290   0.30830   Biso      1.000     N          0.537568  
         N3        1.0000    0.87740   0.34710   0.80830   Biso      1.000     N          0.537568  
         N4        1.0000    0.37740   0.15290   0.19170   Biso      1.000     N          0.537567  
         N5        1.0000    0.62260   0.84710   0.80830   Biso      1.000     N          0.537568  
         N6        1.0000    0.87740   0.65290   0.30830   Biso      1.000     N          0.537568  
         N7        1.0000    0.12260   0.34710   0.69170   Biso      1.000     N          0.537567  
         N8        1.0000    0.12260   0.65290   0.19170   Biso      1.000     N          0.537567  
         O1        1.0000    0.31340   0.08590   0.19280   Biso      1.000     O          -0.345947           
         O2        1.0000    0.90950   0.06290   0.86600   Biso      1.000     O          -0.572376           
         O3        1.0000    0.05310   0.10350   0.38092   Biso      1.000     O          -0.539652           
         O4        1.0000    0.04860   0.16150   0.45288   Biso      1.000     O          -0.529358           
         O5        1.0000    0.46040   0.14640   0.17100   Biso      1.000     O          -0.32647  
         O6        1.0000    0.33320   0.38850   0.50480   Biso      1.000     O          -0.608007           
         O7        1.0000    0.44730   0.44690   0.45550   Biso      1.000     O          -0.58661  
         O8        1.0000    0.83580   0.21150   0.88090   Biso      1.000     O          -0.441582           
         O9        1.0000    0.03960   0.35360   0.67100   Biso      1.000     O          -0.326471           
         O10       1.0000    0.81340   0.41410   0.80720   Biso      1.000     O          -0.345947           
         O11       1.0000    0.59050   0.56290   0.86600   Biso      1.000     O          -0.572376           
         O12       1.0000    0.66420   0.71150   0.88090   Biso      1.000     O          -0.441587           
         O13       1.0000    0.33580   0.71150   0.61910   Biso      1.000     O          -0.441592           
         O14       1.0000    0.53960   0.85360   0.82900   Biso      1.000     O          -0.326471           
         O15       1.0000    0.68660   0.91410   0.80720   Biso      1.000     O          -0.345948           
         O16       1.0000    0.40950   0.56290   0.63400   Biso      1.000     O          -0.572378           
         O17       1.0000    0.94690   0.89650   0.61908   Biso      1.000     O          -0.539651           
         O18       1.0000    0.96040   0.35360   0.82900   Biso      1.000     O          -0.326471           
         O19       1.0000    0.95140   0.83850   0.54712   Biso      1.000     O          -0.529357           
         O20       1.0000    0.55270   0.55310   0.54450   Biso      1.000     O          -0.586607           
         O21       1.0000    0.05310   0.89650   0.88092   Biso      1.000     O          -0.539653           
         O22       1.0000    0.40950   0.43710   0.13400   Biso      1.000     O          -0.572373           
         O23       1.0000    0.94730   0.05310   0.54450   Biso      1.000     O          -0.586608           
         O24       1.0000    0.83320   0.11150   0.49520   Biso      1.000     O          -0.608006           
         O25       1.0000    0.54860   0.33850   0.54712   Biso      1.000     O          -0.52936  
         O26       1.0000    0.55310   0.39650   0.61908   Biso      1.000     O          -0.539653           
         O27       1.0000    0.66680   0.61150   0.49520   Biso      1.000     O          -0.608005           
         O28       1.0000    0.33580   0.28850   0.11910   Biso      1.000     O          -0.441586           
         O29       1.0000    0.44730   0.55310   0.95550   Biso      1.000     O          -0.586604           
         O30       1.0000    0.33320   0.61150   0.00480   Biso      1.000     O          -0.608002           
         O31       1.0000    0.81340   0.58590   0.30720   Biso      1.000     O          -0.345948           
         O32       1.0000    0.55310   0.60350   0.11908   Biso      1.000     O          -0.539648           
         O33       1.0000    0.54860   0.66150   0.04712   Biso      1.000     O          -0.529356           
         O34       1.0000    0.83320   0.88850   0.99520   Biso      1.000     O          -0.608008           
         O35       1.0000    0.94730   0.94690   0.04450   Biso      1.000     O          -0.586616           
         O36       1.0000    0.05270   0.94690   0.45550   Biso      1.000     O          -0.586612           
         O37       1.0000    0.96040   0.64640   0.32900   Biso      1.000     O          -0.326471           
         O38       1.0000    0.45140   0.66150   0.45288   Biso      1.000     O          -0.52936  
         O39       1.0000    0.09050   0.06290   0.63400   Biso      1.000     O          -0.572375           
         O40       1.0000    0.05270   0.05310   0.95550   Biso      1.000     O          -0.58661  
         O41       1.0000    0.16680   0.11150   0.00480   Biso      1.000     O          -0.608004           
         O42       1.0000    0.45140   0.33850   0.95288   Biso      1.000     O          -0.52936  
         O43       1.0000    0.44690   0.39650   0.88092   Biso      1.000     O          -0.539652           
         O44       1.0000    0.18660   0.41410   0.69280   Biso      1.000     O          -0.345947           
         O45       1.0000    0.16680   0.88850   0.50480   Biso      1.000     O          -0.608008           
         O46       1.0000    0.04860   0.83850   0.95288   Biso      1.000     O          -0.52936  
         O47       1.0000    0.83580   0.78850   0.38090   Biso      1.000     O          -0.44157  
         O48       1.0000    0.90950   0.93710   0.36600   Biso      1.000     O          -0.572371           
         O49       1.0000    0.16420   0.21150   0.61910   Biso      1.000     O          -0.441579           
         O50       1.0000    0.09050   0.93710   0.13400   Biso      1.000     O          -0.572373           
         O51       1.0000    0.16420   0.78850   0.11910   Biso      1.000     O          -0.441584           
         O52       1.0000    0.03960   0.64640   0.17100   Biso      1.000     O          -0.32647  
         O53       1.0000    0.55270   0.44690   0.04450   Biso      1.000     O          -0.586607           
         O54       1.0000    0.66680   0.38850   0.99520   Biso      1.000     O          -0.608004           
         O55       1.0000    0.31340   0.91410   0.69280   Biso      1.000     O          -0.345947           
         O56       1.0000    0.95140   0.16150   0.04712   Biso      1.000     O          -0.529354           
         O57       1.0000    0.68660   0.08590   0.30720   Biso      1.000     O          -0.345948           
         O58       1.0000    0.53960   0.14640   0.32900   Biso      1.000     O          -0.326471           
         O59       1.0000    0.66420   0.28850   0.38090   Biso      1.000     O          -0.441571           
         O60       1.0000    0.59050   0.43710   0.36600   Biso      1.000     O          -0.572372           
         O61       1.0000    0.18660   0.58590   0.19280   Biso      1.000     O          -0.345947           
         O62       1.0000    0.44690   0.60350   0.38092   Biso      1.000     O          -0.539654           
         O63       1.0000    0.94690   0.10350   0.11908   Biso      1.000     O          -0.539646           
         O64       1.0000    0.46040   0.85360   0.67100   Biso      1.000     O          -0.32647 