
##########################################################################
#               Crystallographic Information Format file
#               Produced by PyCifRW module
#
#  This is a CIF file.  CIF has been adopted by the International
#  Union of Crystallography as the standard for data archiving and
#  transmission.
#
#  For information on this file format, follow the CIF links at
#  http://www.iucr.org
##########################################################################

data_image0

_cell_length_a                          7.1291
_cell_length_b                          16.0748
_cell_length_c                          11.0375
_cell_angle_alpha                       90
_cell_angle_beta                        90
_cell_angle_gamma                       90
_symmetry_space_group_name_H-M          'P 1'
_symmetry_int_tables_number             1
loop_
  _symmetry_equiv_pos_as_xyz
         'x, y, z' 
loop_
  _atom_site_label
  _atom_site_occupancy
  _atom_site_fract_x
  _atom_site_fract_y
  _atom_site_fract_z
  _atom_site_thermal_displace_type
  _atom_site_B_iso_or_equiv
  _atom_site_type_symbol
  _atom_site_charge
         C1        1.0000    0.71160   0.85020   0.52470   Biso      1.000     C          0.597476  
         C2        1.0000    0.84410   0.89540   0.60910   Biso      1.000     C          -0.005679           
         C3        1.0000    0.79960   0.97520   0.65150   Biso      1.000     C          -0.099624           
         C4        1.0000    0.92020   0.01700   0.73070   Biso      1.000     C          -0.014186           
         C5        1.0000    0.86670   0.10130   0.78470   Biso      1.000     C          0.6190180000000001  
         C6        1.0000    0.49000   0.35780   0.14640   Biso      1.000     C          -0.108724           
         C7        1.0000    0.08900   0.97990   0.76560   Biso      1.000     C          -0.135094           
         C8        1.0000    0.19140   0.36280   0.25930   Biso      1.000     C          0.255021  
         C9        1.0000    0.63330   0.60130   0.28470   Biso      1.000     C          0.619017  
         C10       1.0000    0.13300   0.90070   0.72290   Biso      1.000     C          0.083409  
         C11       1.0000    0.36700   0.40070   0.22290   Biso      1.000     C          0.08340800000000001           
         C12       1.0000    0.01000   0.85780   0.64640   Biso      1.000     C          -0.108725           
         C13       1.0000    0.51000   0.64220   0.64640   Biso      1.000     C          -0.108724           
         C14       1.0000    0.41100   0.47990   0.26560   Biso      1.000     C          -0.135094           
         C15       1.0000    0.78840   0.35020   0.02470   Biso      1.000     C          0.597476  
         C16       1.0000    0.65590   0.39540   0.10910   Biso      1.000     C          -0.005679           
         C17       1.0000    0.70040   0.47520   0.15150   Biso      1.000     C          -0.099624           
         C18       1.0000    0.30860   0.86280   0.75930   Biso      1.000     C          0.255021  
         C19       1.0000    0.21160   0.64980   0.52470   Biso      1.000     C          0.597476  
         C20       1.0000    0.57980   0.51700   0.23070   Biso      1.000     C          -0.014185           
         C21       1.0000    0.58900   0.52010   0.76560   Biso      1.000     C          -0.135095           
         C22       1.0000    0.29960   0.52480   0.65150   Biso      1.000     C          -0.099624           
         C23       1.0000    0.99000   0.14220   0.14640   Biso      1.000     C          -0.108724           
         C24       1.0000    0.80860   0.63720   0.75930   Biso      1.000     C          0.255021  
         C25       1.0000    0.63300   0.59930   0.72290   Biso      1.000     C          0.08340800000000001           
         C26       1.0000    0.69140   0.13720   0.25930   Biso      1.000     C          0.255021  
         C27       1.0000    0.86700   0.09930   0.22290   Biso      1.000     C          0.08340800000000001           
         C28       1.0000    0.28840   0.14980   0.02470   Biso      1.000     C          0.597476  
         C29       1.0000    0.42020   0.48300   0.73070   Biso      1.000     C          -0.014185           
         C30       1.0000    0.91100   0.02010   0.26560   Biso      1.000     C          -0.135094           
         C31       1.0000    0.36670   0.39870   0.78470   Biso      1.000     C          0.6190180000000001  
         C32       1.0000    0.34410   0.60460   0.60910   Biso      1.000     C          -0.005679           
         C33       1.0000    0.13330   0.89870   0.28470   Biso      1.000     C          0.619017  
         C34       1.0000    0.07980   0.98300   0.23070   Biso      1.000     C          -0.014185           
         C35       1.0000    0.15590   0.10460   0.10910   Biso      1.000     C          -0.005679           
         C36       1.0000    0.20040   0.02480   0.15150   Biso      1.000     C          -0.099623           
         Cd1       1.0000    0.45536   0.77616   0.36621   Biso      1.000     Cd          1.001522  
         Cd2       1.0000    0.95536   0.72384   0.36621   Biso      1.000     Cd          1.0015209999999999  
         Cd3       1.0000    0.04464   0.27616   0.86621   Biso      1.000     Cd          1.001522  
         Cd4       1.0000    0.54464   0.22384   0.86621   Biso      1.000     Cd          1.0015209999999999  
         H1        1.0000    0.32880   0.50780   0.31680   Biso      1.000     H          0.13533299999999998           
         H2        1.0000    0.67120   0.49220   0.81680   Biso      1.000     H          0.13533299999999998           
         H3        1.0000    0.46090   0.30420   0.12060   Biso      1.000     H          0.126194  
         H4        1.0000    0.18880   0.49950   0.62680   Biso      1.000     H          0.13388   
         H5        1.0000    0.03910   0.80420   0.62060   Biso      1.000     H          0.126194  
         H6        1.0000    0.53910   0.69580   0.62060   Biso      1.000     H          0.126194  
         H7        1.0000    0.96090   0.19580   0.12060   Biso      1.000     H          0.126194  
         H8        1.0000    0.81120   0.50050   0.12680   Biso      1.000     H          0.13388   
         H9        1.0000    0.68880   0.00050   0.62680   Biso      1.000     H          0.13388   
         H10       1.0000    0.31120   0.99950   0.12680   Biso      1.000     H          0.13388   
         H11       1.0000    0.82880   0.99220   0.31680   Biso      1.000     H          0.13533299999999998           
         H12       1.0000    0.17120   0.00780   0.81680   Biso      1.000     H          0.13533299999999998           
         N1        1.0000    0.05000   0.33490   0.28920   Biso      1.000     N          -0.370082           
         N2        1.0000    0.45000   0.83490   0.78920   Biso      1.000     N          -0.370082           
         N3        1.0000    0.55000   0.16510   0.28920   Biso      1.000     N          -0.370082           
         N4        1.0000    0.95000   0.66510   0.78920   Biso      1.000     N          -0.370082           
         O1        1.0000    0.25720   0.22457   0.99860   Biso      1.000     O          -0.593498           
         O2        1.0000    0.49290   0.36063   0.83810   Biso      1.000     O          -0.566876           
         O3        1.0000    0.19910   0.37730   0.77090   Biso      1.000     O          -0.540955           
         O4        1.0000    0.00710   0.86063   0.33810   Biso      1.000     O          -0.566876           
         O5        1.0000    0.42870   0.11171   0.98530   Biso      1.000     O          -0.517134           
         O6        1.0000    0.30090   0.87730   0.27090   Biso      1.000     O          -0.540955           
         O7        1.0000    0.80090   0.62270   0.27090   Biso      1.000     O          -0.540955           
         O8        1.0000    0.24280   0.72457   0.49860   Biso      1.000     O          -0.593498           
         O9        1.0000    0.07130   0.61171   0.48530   Biso      1.000     O          -0.517133           
         O10       1.0000    0.69910   0.12270   0.77090   Biso      1.000     O          -0.540955           
         O11       1.0000    0.99290   0.13937   0.83810   Biso      1.000     O          -0.566876           
         O12       1.0000    0.92870   0.38829   0.98530   Biso      1.000     O          -0.517134           
         O13       1.0000    0.75720   0.27543   0.99860   Biso      1.000     O          -0.593499           
         O14       1.0000    0.50710   0.63937   0.33810   Biso      1.000     O          -0.566876           
         O15       1.0000    0.74280   0.77543   0.49860   Biso      1.000     O          -0.593498           
         O16       1.0000    0.57130   0.88829   0.48530   Biso      1.000     O          -0.517134 