
##########################################################################
#               Crystallographic Information Format file
#               Produced by PyCifRW module
#
#  This is a CIF file.  CIF has been adopted by the International
#  Union of Crystallography as the standard for data archiving and
#  transmission.
#
#  For information on this file format, follow the CIF links at
#  http://www.iucr.org
##########################################################################

data_image0

_cell_length_a                          9.8707
_cell_length_b                          16.5087
_cell_length_c                          16.4722
_cell_angle_alpha                       90
_cell_angle_beta                        90
_cell_angle_gamma                       90
_symmetry_space_group_name_H-M          'P 1'
_symmetry_int_tables_number             1
loop_
  _symmetry_equiv_pos_as_xyz
         'x, y, z' 
loop_
  _atom_site_label
  _atom_site_occupancy
  _atom_site_fract_x
  _atom_site_fract_y
  _atom_site_fract_z
  _atom_site_thermal_displace_type
  _atom_site_B_iso_or_equiv
  _atom_site_type_symbol
  _atom_site_charge
         C1        1.0000    0.48330   0.97580   0.90780   Biso      1.000     C          0.036927  
         C2        1.0000    0.42120   0.08570   0.64160   Biso      1.000     C          -0.167384           
         C3        1.0000    0.55170   0.04190   0.86180   Biso      1.000     C          -0.14566500000000002          
         C4        1.0000    0.66780   0.87990   0.07410   Biso      1.000     C          0.041822000000000005          
         C5        1.0000    0.57880   0.91430   0.14160   Biso      1.000     C          -0.16961099999999998          
         C6        1.0000    0.55170   0.45810   0.36180   Biso      1.000     C          -0.14582699999999998          
         C7        1.0000    0.66780   0.62010   0.57410   Biso      1.000     C          0.041724000000000004          
         C8        1.0000    0.57880   0.58570   0.64160   Biso      1.000     C          -0.169639           
         C9        1.0000    0.48330   0.52420   0.40780   Biso      1.000     C          0.037038999999999996          
         C10       1.0000    0.44830   0.54190   0.86180   Biso      1.000     C          -0.14574600000000001          
         C11       1.0000    0.33220   0.37990   0.07410   Biso      1.000     C          0.041748  
         C12       1.0000    0.42120   0.41430   0.14160   Biso      1.000     C          -0.16956500000000002          
         C13       1.0000    0.33220   0.12010   0.57410   Biso      1.000     C          0.043854000000000004          
         C14       1.0000    0.44830   0.95810   0.36180   Biso      1.000     C          -0.15419000000000002          
         C15       1.0000    0.51670   0.02420   0.40780   Biso      1.000     C          0.035933  
         C16       1.0000    0.51670   0.47580   0.90780   Biso      1.000     C          0.037107999999999995          
         Ge1       1.0000    0.09054   0.02502   0.55226   Biso      1.000     Ge          1.684725  
         Ge2       1.0000    0.82667   0.90456   0.66394   Biso      1.000     Ge          1.636954  
         Ge3       1.0000    0.72958   0.99479   0.52202   Biso      1.000     Ge          1.671715  
         Ge4       1.0000    0.97565   0.05814   0.72244   Biso      1.000     Ge          1.681586  
         Ge5       1.0000    0.86759   0.15125   0.57743   Biso      1.000     Ge          1.6649049999999999  
         Ge6       1.0000    0.06377   0.83682   0.56008   Biso      1.000     Ge          1.716812  
         Ge7       1.0000    0.17333   0.09544   0.16394   Biso      1.000     Ge          1.63706   
         Ge8       1.0000    0.95452   0.92708   0.41424   Biso      1.000     Ge          1.670453  
         Ge9       1.0000    0.02435   0.94186   0.22244   Biso      1.000     Ge          1.680638  
         Ge10      1.0000    0.09054   0.47498   0.05226   Biso      1.000     Ge          1.6803830000000002  
         Ge11      1.0000    0.95452   0.57292   0.91424   Biso      1.000     Ge          1.668478  
         Ge12      1.0000    0.06377   0.66318   0.06008   Biso      1.000     Ge          1.716625  
         Ge13      1.0000    0.86759   0.34875   0.07743   Biso      1.000     Ge          1.6631630000000002  
         Ge14      1.0000    0.97565   0.44186   0.22244   Biso      1.000     Ge          1.6806259999999997  
         Ge15      1.0000    0.27042   0.00521   0.02202   Biso      1.000     Ge          1.6705619999999999  
         Ge16      1.0000    0.82667   0.59544   0.16394   Biso      1.000     Ge          1.637494  
         Ge17      1.0000    0.90946   0.52502   0.55226   Biso      1.000     Ge          1.6804560000000002  
         Ge18      1.0000    0.04548   0.42708   0.41424   Biso      1.000     Ge          1.668182  
         Ge19      1.0000    0.72958   0.50521   0.02202   Biso      1.000     Ge          1.6707    
         Ge20      1.0000    0.13241   0.65125   0.57743   Biso      1.000     Ge          1.663458  
         Ge21      1.0000    0.02435   0.55814   0.72244   Biso      1.000     Ge          1.6807560000000001  
         Ge22      1.0000    0.27042   0.49479   0.52202   Biso      1.000     Ge          1.670779  
         Ge23      1.0000    0.17333   0.40456   0.66394   Biso      1.000     Ge          1.6372870000000002  
         Ge24      1.0000    0.90946   0.97498   0.05226   Biso      1.000     Ge          1.680093  
         Ge25      1.0000    0.04548   0.07292   0.91424   Biso      1.000     Ge          1.668238  
         Ge26      1.0000    0.93623   0.16318   0.06008   Biso      1.000     Ge          1.7165080000000001  
         Ge27      1.0000    0.13241   0.84875   0.07743   Biso      1.000     Ge          1.663188  
         Ge28      1.0000    0.93623   0.33682   0.56008   Biso      1.000     Ge          1.7170720000000002  
         H1        1.0000    0.51540   0.09690   0.62920   Biso      1.000     H          0.128718  
         H2        1.0000    0.39930   0.11260   0.69230   Biso      1.000     H          0.142004  
         H3        1.0000    0.38730   0.15380   0.53890   Biso      1.000     H          0.096138  
         H4        1.0000    0.26290   0.15420   0.59800   Biso      1.000     H          0.10241099999999999           
         H5        1.0000    0.59840   0.04080   0.37960   Biso      1.000     H          0.114619  
         H6        1.0000    0.51290   0.91570   0.34930   Biso      1.000     H          0.143575  
         H7        1.0000    0.45710   0.07070   0.41200   Biso      1.000     H          0.102216  
         H8        1.0000    0.40160   0.95920   0.87960   Biso      1.000     H          0.11629400000000001           
         H9        1.0000    0.41280   0.97920   0.31110   Biso      1.000     H          0.144831  
         H10       1.0000    0.54290   0.92930   0.91200   Biso      1.000     H          0.101589  
         H11       1.0000    0.60070   0.61260   0.69230   Biso      1.000     H          0.143375  
         H12       1.0000    0.58720   0.02080   0.81110   Biso      1.000     H          0.13858199999999998           
         H13       1.0000    0.51540   0.40310   0.12920   Biso      1.000     H          0.131461  
         H14       1.0000    0.39930   0.38740   0.19230   Biso      1.000     H          0.143531  
         H15       1.0000    0.38730   0.34620   0.03890   Biso      1.000     H          0.095413  
         H16       1.0000    0.26290   0.34580   0.09800   Biso      1.000     H          0.100851  
         H17       1.0000    0.41280   0.52080   0.81110   Biso      1.000     H          0.138683  
         H18       1.0000    0.51290   0.58430   0.84930   Biso      1.000     H          0.141388  
         H19       1.0000    0.48710   0.08430   0.84930   Biso      1.000     H          0.141402  
         H20       1.0000    0.59840   0.45920   0.87960   Biso      1.000     H          0.116417  
         H21       1.0000    0.48460   0.59690   0.62920   Biso      1.000     H          0.13137000000000001           
         H22       1.0000    0.45710   0.42930   0.91200   Biso      1.000     H          0.10165199999999999           
         H23       1.0000    0.61270   0.84620   0.03890   Biso      1.000     H          0.09539700000000001           
         H24       1.0000    0.73710   0.65420   0.59800   Biso      1.000     H          0.100772  
         H25       1.0000    0.58720   0.47920   0.31110   Biso      1.000     H          0.13857   
         H26       1.0000    0.48710   0.41570   0.34930   Biso      1.000     H          0.14140999999999998           
         H27       1.0000    0.54290   0.57070   0.41200   Biso      1.000     H          0.101562  
         H28       1.0000    0.40160   0.54080   0.37960   Biso      1.000     H          0.11631199999999998           
         H29       1.0000    0.48460   0.90310   0.12920   Biso      1.000     H          0.131261  
         H30       1.0000    0.60070   0.88740   0.19230   Biso      1.000     H          0.143202  
         H31       1.0000    0.61270   0.65380   0.53890   Biso      1.000     H          0.09529   
         H32       1.0000    0.73710   0.84580   0.09800   Biso      1.000     H          0.100863  
         N1        1.0000    0.33480   0.57560   0.91230   Biso      1.000     N          -0.13744800000000001          
         N2        1.0000    0.40230   0.50750   0.15240   Biso      1.000     N          -0.141851           
         N3        1.0000    0.33480   0.92440   0.41230   Biso      1.000     N          -0.11425  
         N4        1.0000    0.59770   0.49250   0.65240   Biso      1.000     N          -0.141968           
         N5        1.0000    0.66520   0.07560   0.91230   Biso      1.000     N          -0.13729  
         N6        1.0000    0.59770   0.00750   0.15240   Biso      1.000     N          -0.142833           
         N7        1.0000    0.40230   0.99250   0.65240   Biso      1.000     N          -0.13150599999999998          
         N8        1.0000    0.66520   0.42440   0.41230   Biso      1.000     N          -0.137255           
         Ni1       1.0000    0.37116   0.55204   0.03555   Biso      1.000     Ni          0.817526  
         Ni2       1.0000    0.37116   0.94796   0.53555   Biso      1.000     Ni          0.796307  
         Ni3       1.0000    0.62884   0.05204   0.03555   Biso      1.000     Ni          0.8177439999999999  
         Ni4       1.0000    0.62884   0.44796   0.53555   Biso      1.000     Ni          0.8178300000000001  
         O1        1.0000    0.21330   0.04710   0.92810   Biso      1.000     O          -0.8598319999999999           
         O2        1.0000    0.05650   0.17120   0.13640   Biso      1.000     O          -0.82634  
         O3        1.0000    0.13570   0.86850   0.18130   Biso      1.000     O          -0.869563           
         O4        1.0000    0.11530   0.03120   0.24260   Biso      1.000     O          -0.814623           
         O5        1.0000    0.08910   0.01770   0.07350   Biso      1.000     O          -1.0923200000000002           
         O6        1.0000    0.01390   0.16530   0.96500   Biso      1.000     O          -0.8516959999999999           
         O7        1.0000    0.02800   0.10010   0.81400   Biso      1.000     O          -0.810621           
         O8        1.0000    0.82860   0.24640   0.06680   Biso      1.000     O          -0.819006           
         O9        1.0000    0.97660   0.87110   0.03460   Biso      1.000     O          -0.8583860000000001           
         O10       1.0000    0.88270   0.95570   0.16250   Biso      1.000     O          -0.8615870000000001           
         O11       1.0000    0.93170   0.99770   0.94020   Biso      1.000     O          -0.836234           
         O12       1.0000    0.83250   0.07950   0.06840   Biso      1.000     O          -0.8745   
         O13       1.0000    0.26620   0.89770   0.02920   Biso      1.000     O          -0.8438370000000001           
         O14       1.0000    0.31730   0.06830   0.10410   Biso      1.000     O          -0.836109           
         O15       1.0000    0.26860   0.05840   0.52660   Biso      1.000     O          -0.41982200000000003          
         O16       1.0000    0.73140   0.94160   0.02660   Biso      1.000     O          -0.42704  
         O17       1.0000    0.16750   0.92050   0.56840   Biso      1.000     O          -0.864044           
         O18       1.0000    0.06830   0.00230   0.44020   Biso      1.000     O          -0.859261           
         O19       1.0000    0.11730   0.04430   0.66250   Biso      1.000     O          -0.867834           
         O20       1.0000    0.02340   0.12890   0.53460   Biso      1.000     O          -0.8740180000000001           
         O21       1.0000    0.17140   0.75360   0.56680   Biso      1.000     O          -0.8194389999999999           
         O22       1.0000    0.97200   0.89990   0.31400   Biso      1.000     O          -0.810501           
         O23       1.0000    0.98610   0.83470   0.46500   Biso      1.000     O          -0.852902           
         O24       1.0000    0.91090   0.98230   0.57350   Biso      1.000     O          -1.090698           
         O25       1.0000    0.88470   0.96880   0.74260   Biso      1.000     O          -0.8158489999999999           
         O26       1.0000    0.86430   0.13150   0.68130   Biso      1.000     O          -0.8708950000000001           
         O27       1.0000    0.94350   0.82880   0.63640   Biso      1.000     O          -0.8259709999999999           
         O28       1.0000    0.78670   0.95290   0.42810   Biso      1.000     O          -0.860819           
         O29       1.0000    0.73380   0.10230   0.52920   Biso      1.000     O          -0.8437899999999999           
         O30       1.0000    0.44940   0.00510   0.98810   Biso      1.000     O          -0.5048779999999999           
         O31       1.0000    0.44940   0.49490   0.48810   Biso      1.000     O          -0.50507  
         O32       1.0000    0.31730   0.43170   0.60410   Biso      1.000     O          -0.835902           
         O33       1.0000    0.26620   0.60230   0.52920   Biso      1.000     O          -0.843836           
         O34       1.0000    0.26860   0.44160   0.02660   Biso      1.000     O          -0.426972           
         O35       1.0000    0.16750   0.57950   0.06840   Biso      1.000     O          -0.874769           
         O36       1.0000    0.06830   0.49770   0.94020   Biso      1.000     O          -0.8367049999999999           
         O37       1.0000    0.11730   0.45570   0.16250   Biso      1.000     O          -0.8617670000000001           
         O38       1.0000    0.02340   0.37110   0.03460   Biso      1.000     O          -0.858655           
         O39       1.0000    0.17140   0.74640   0.06680   Biso      1.000     O          -0.8190810000000001           
         O40       1.0000    0.97200   0.60010   0.81400   Biso      1.000     O          -0.810844           
         O41       1.0000    0.98610   0.66530   0.96500   Biso      1.000     O          -0.851958           
         O42       1.0000    0.91090   0.51770   0.07350   Biso      1.000     O          -1.092394           
         O43       1.0000    0.88470   0.53120   0.24260   Biso      1.000     O          -0.815084           
         O44       1.0000    0.86430   0.36850   0.18130   Biso      1.000     O          -0.868966           
         O45       1.0000    0.94350   0.67120   0.13640   Biso      1.000     O          -0.8266979999999999           
         O46       1.0000    0.78670   0.54710   0.92810   Biso      1.000     O          -0.859826           
         O47       1.0000    0.73380   0.39770   0.02920   Biso      1.000     O          -0.843684           
         O48       1.0000    0.68270   0.56830   0.10410   Biso      1.000     O          -0.8358979999999999           
         O49       1.0000    0.55060   0.50510   0.98810   Biso      1.000     O          -0.50503  
         O50       1.0000    0.73140   0.55840   0.52660   Biso      1.000     O          -0.427094           
         O51       1.0000    0.83250   0.42050   0.56840   Biso      1.000     O          -0.8748   
         O52       1.0000    0.93170   0.50230   0.44020   Biso      1.000     O          -0.8368690000000001           
         O53       1.0000    0.88270   0.54430   0.66250   Biso      1.000     O          -0.861836           
         O54       1.0000    0.97660   0.62890   0.53460   Biso      1.000     O          -0.858833           
         O55       1.0000    0.82860   0.25360   0.56680   Biso      1.000     O          -0.8199069999999999           
         O56       1.0000    0.02800   0.39990   0.31400   Biso      1.000     O          -0.810509           
         O57       1.0000    0.01390   0.33470   0.46500   Biso      1.000     O          -0.851266           
         O58       1.0000    0.08910   0.48230   0.57350   Biso      1.000     O          -1.092366           
         O59       1.0000    0.11530   0.46880   0.74260   Biso      1.000     O          -0.815249           
         O60       1.0000    0.13570   0.63150   0.68130   Biso      1.000     O          -0.8693360000000001           
         O61       1.0000    0.05650   0.32880   0.63640   Biso      1.000     O          -0.826225           
         O62       1.0000    0.21330   0.45290   0.42810   Biso      1.000     O          -0.8599040000000001           
         O63       1.0000    0.68270   0.93170   0.60410   Biso      1.000     O          -0.837239           
         O64       1.0000    0.55060   0.99490   0.48810   Biso      1.000     O          -0.496597 