
##########################################################################
#               Crystallographic Information Format file
#               Produced by PyCifRW module
#
#  This is a CIF file.  CIF has been adopted by the International
#  Union of Crystallography as the standard for data archiving and
#  transmission.
#
#  For information on this file format, follow the CIF links at
#  http://www.iucr.org
##########################################################################

data_image0

_cell_length_a                          10.2343
_cell_length_b                          19.118
_cell_length_c                          20.9287
_cell_angle_alpha                       67.553
_cell_angle_beta                        86.753
_cell_angle_gamma                       83.63
_symmetry_space_group_name_H-M          'P 1'
_symmetry_int_tables_number             1
loop_
  _symmetry_equiv_pos_as_xyz
         'x, y, z' 
loop_
  _atom_site_label
  _atom_site_occupancy
  _atom_site_fract_x
  _atom_site_fract_y
  _atom_site_fract_z
  _atom_site_thermal_displace_type
  _atom_site_B_iso_or_equiv
  _atom_site_type_symbol
  _atom_site_charge
         C1        1.0000    0.26450   0.06230   0.94300   Biso      1.000     C          0.09277   
         C2        1.0000    0.48530   0.16820   0.43830   Biso      1.000     C          0.260385  
         C3        1.0000    0.59130   0.11970   0.48290   Biso      1.000     C          -0.121718           
         C4        1.0000    0.68860   0.08040   0.45360   Biso      1.000     C          0.048971  
         C5        1.0000    0.80070   0.03890   0.49420   Biso      1.000     C          -0.11210899999999999          
         C6        1.0000    0.88800   0.99960   0.46840   Biso      1.000     C          -0.158629           
         C7        1.0000    0.87020   0.99480   0.40300   Biso      1.000     C          0.16660999999999998           
         C8        1.0000    0.76720   0.03270   0.36400   Biso      1.000     C          -0.22709000000000001          
         C9        1.0000    0.67110   0.07500   0.38920   Biso      1.000     C          0.043233999999999995          
         C10       1.0000    0.47300   0.16610   0.37320   Biso      1.000     C          -0.277015           
         C11       1.0000    0.55460   0.11430   0.35000   Biso      1.000     C          0.022965  
         C12       1.0000    0.51090   0.04840   0.27210   Biso      1.000     C          -0.18598399999999998          
         C13       1.0000    0.52450   0.11390   0.28220   Biso      1.000     C          0.122228  
         C14       1.0000    0.50350   0.18290   0.22480   Biso      1.000     C          -0.195262           
         C15       1.0000    0.46650   0.18730   0.16130   Biso      1.000     C          0.086775  
         C16       1.0000    0.99250   0.04370   0.65980   Biso      1.000     C          -0.103867           
         C17       1.0000    0.08300   0.08730   0.67020   Biso      1.000     C          0.058427999999999994          
         C18       1.0000    0.15260   0.13240   0.61950   Biso      1.000     C          -0.089184           
         C19       1.0000    0.24560   0.18150   0.63170   Biso      1.000     C          0.238909  
         C20       1.0000    0.46890   0.05610   0.20700   Biso      1.000     C          0.12427300000000001           
         C21       1.0000    0.60920   0.12680   0.55100   Biso      1.000     C          -0.079125           
         C22       1.0000    0.64090   0.19940   0.55370   Biso      1.000     C          0.035498  
         C23       1.0000    0.65570   0.26500   0.49450   Biso      1.000     C          -0.139282           
         C24       1.0000    0.09950   0.08140   0.74060   Biso      1.000     C          0.039925  
         C25       1.0000    0.18400   0.12420   0.75540   Biso      1.000     C          0.040666  
         C26       1.0000    0.92500   0.99790   0.70980   Biso      1.000     C          -0.146449           
         C27       1.0000    0.22980   0.05580   0.88280   Biso      1.000     C          -0.20631300000000002          
         C28       1.0000    0.20250   0.12430   0.82740   Biso      1.000     C          0.119875  
         C29       1.0000    0.20840   0.19150   0.83590   Biso      1.000     C          -0.187856           
         C30       1.0000    0.24130   0.19130   0.89770   Biso      1.000     C          0.129348  
         C31       1.0000    0.78140   0.14660   0.83850   Biso      1.000     C          0.10295499999999999           
         C32       1.0000    0.76320   0.15530   0.77090   Biso      1.000     C          -0.192875           
         C33       1.0000    0.65230   0.13330   0.75180   Biso      1.000     C          0.117105  
         C34       1.0000    0.56390   0.09960   0.80520   Biso      1.000     C          -0.205083           
         C35       1.0000    0.58860   0.09200   0.87290   Biso      1.000     C          0.090616  
         C36       1.0000    0.59390   0.06570   0.60810   Biso      1.000     C          0.246621  
         C37       1.0000    0.60290   0.07280   0.67630   Biso      1.000     C          -0.253283           
         C38       1.0000    0.63150   0.13790   0.68090   Biso      1.000     C          0.044689  
         C39       1.0000    0.65050   0.20180   0.62210   Biso      1.000     C          0.048679  
         C40       1.0000    0.67200   0.27320   0.62340   Biso      1.000     C          -0.228962           
         C41       1.0000    0.68520   0.33300   0.56330   Biso      1.000     C          0.168349  
         C42       1.0000    0.67520   0.33040   0.49700   Biso      1.000     C          -0.136493           
         C43       1.0000    0.25800   0.17230   0.70210   Biso      1.000     C          -0.307222           
         C44       1.0000    0.13460   0.14600   0.54530   Biso      1.000     C          -0.117547           
         C45       1.0000    0.07500   0.21890   0.49330   Biso      1.000     C          0.06358899999999999           
         C46       1.0000    0.03850   0.28070   0.51310   Biso      1.000     C          -0.118619           
         C47       1.0000    0.57570   0.51390   0.93950   Biso      1.000     C          -0.213154           
         C48       1.0000    0.51100   0.55760   0.87850   Biso      1.000     C          0.165974  
         C49       1.0000    0.41790   0.61730   0.87650   Biso      1.000     C          -0.162751           
         C50       1.0000    0.39030   0.63320   0.93560   Biso      1.000     C          -0.115471           
         C51       1.0000    0.97900   0.98620   0.01480   Biso      1.000     C          0.124964  
         C52       1.0000    0.06500   0.92260   0.02620   Biso      1.000     C          -0.181396           
         C53       1.0000    0.03600   0.86010   0.03830   Biso      1.000     C          0.142373  
         C54       1.0000    0.89900   0.85610   0.03040   Biso      1.000     C          -0.225081           
         C55       1.0000    0.81200   0.92520   0.01990   Biso      1.000     C          0.075361  
         C56       1.0000    0.31560   0.66830   0.05110   Biso      1.000     C          -0.06808600000000001          
         C57       1.0000    0.34720   0.74290   0.02030   Biso      1.000     C          0.26305300000000004           
         C58       1.0000    0.25290   0.80260   0.01630   Biso      1.000     C          -0.284462           
         C59       1.0000    0.12700   0.78760   0.04300   Biso      1.000     C          0.035443  
         C60       1.0000    0.09550   0.71300   0.07380   Biso      1.000     C          0.06481   
         C61       1.0000    0.18980   0.65330   0.07790   Biso      1.000     C          0.063454  
         C62       1.0000    0.15830   0.57870   0.10860   Biso      1.000     C          -0.102369           
         C63       1.0000    0.03240   0.56370   0.13540   Biso      1.000     C          -0.173255           
         C64       1.0000    0.93810   0.62340   0.13130   Biso      1.000     C          0.16541   
         C65       1.0000    0.96960   0.69800   0.10060   Biso      1.000     C          -0.229787           
         C66       1.0000    0.54810   0.52980   0.99860   Biso      1.000     C          0.06241699999999999           
         C67       1.0000    0.02070   0.03120   0.79210   Biso      1.000     C          -0.23404  
         C68       1.0000    0.45540   0.58950   0.99670   Biso      1.000     C          0.058366999999999995          
         C69       1.0000    0.49290   0.56170   0.11680   Biso      1.000     C          0.25338   
         C70       1.0000    0.99500   0.34430   0.46740   Biso      1.000     C          -0.145296           
         C71       1.0000    0.98000   0.35380   0.39500   Biso      1.000     C          0.151009  
         C72       1.0000    0.00580   0.29220   0.37860   Biso      1.000     C          -0.2255   
         C73       1.0000    0.06060   0.22110   0.42640   Biso      1.000     C          0.050485  
         C74       1.0000    0.09190   0.15900   0.40680   Biso      1.000     C          0.046211  
         C75       1.0000    0.15310   0.09340   0.45370   Biso      1.000     C          -0.240356           
         C76       1.0000    0.18060   0.08850   0.52190   Biso      1.000     C          0.270793  
         C77       1.0000    0.13480   0.12880   0.23840   Biso      1.000     C          0.10331900000000001           
         C78       1.0000    0.16270   0.13010   0.30320   Biso      1.000     C          -0.19760999999999998          
         C79       1.0000    0.06750   0.16060   0.33810   Biso      1.000     C          0.119334  
         C80       1.0000    0.94070   0.18370   0.30770   Biso      1.000     C          -0.195357           
         C81       1.0000    0.92120   0.18070   0.24420   Biso      1.000     C          0.085284  
         C82       1.0000    0.73870   0.29240   0.05570   Biso      1.000     C          0.101189  
         C83       1.0000    0.65080   0.35370   0.04990   Biso      1.000     C          -0.199916           
         C84       1.0000    0.69800   0.41390   0.07010   Biso      1.000     C          0.116818  
         C85       1.0000    0.82280   0.40040   0.09630   Biso      1.000     C          -0.207368           
         C86       1.0000    0.89800   0.33510   0.09920   Biso      1.000     C          0.09852000000000001           
         C87       1.0000    0.61320   0.48610   0.05970   Biso      1.000     C          0.038276  
         C88       1.0000    0.58560   0.50200   0.11870   Biso      1.000     C          -0.28213699999999997          
         C89       1.0000    0.42780   0.60540   0.05580   Biso      1.000     C          -0.068927           
         C90       1.0000    0.93350   0.99120   0.77730   Biso      1.000     C          0.169141  
         Cd1       1.0000    0.99075   0.16458   0.09415   Biso      1.000     Cd          0.7531    
         Cd2       1.0000    0.35536   0.12775   0.05273   Biso      1.000     Cd          0.7432949999999999  
         Cd3       1.0000    0.72089   0.09936   0.00832   Biso      1.000     Cd          0.747694  
         Cl1       1.0000    0.53660   0.21450   0.98040   Biso      1.000     Cl          -0.516231           
         Cl2       1.0000    0.92330   0.18040   0.97020   Biso      1.000     Cl          -0.510224           
         Cl3       1.0000    0.83320   0.93240   0.84180   Biso      1.000     Cl          -0.095014           
         Cl4       1.0000    0.78440   0.08910   0.13320   Biso      1.000     Cl          -0.5182829999999999           
         Cl5       1.0000    0.99130   0.94420   0.37230   Biso      1.000     Cl          -0.09979  
         Cl6       1.0000    0.16680   0.04490   0.12110   Biso      1.000     Cl          -0.52287  
         Cl7       1.0000    0.52730   0.01170   0.05690   Biso      1.000     Cl          -0.5429390000000001           
         Cl8       1.0000    0.70160   0.42400   0.56690   Biso      1.000     Cl          -0.135665           
         Cl9       1.0000    0.19240   0.24600   0.04940   Biso      1.000     Cl          -0.5406979999999999           
         Cl10      1.0000    0.57360   0.55810   0.79820   Biso      1.000     Cl          -0.134508           
         Cl11      1.0000    0.78710   0.59680   0.16690   Biso      1.000     Cl          -0.111997           
         Cl12      1.0000    0.91930   0.44330   0.33530   Biso      1.000     Cl          -0.12498599999999999          
         H1        1.0000    0.96400   0.97380   0.49410   Biso      1.000     H          0.122552  
         H2        1.0000    0.55311   0.58588   0.19797   Biso      1.000     H          0.321561  
         H3        1.0000    0.68250   0.37430   0.45600   Biso      1.000     H          0.133714  
         H4        1.0000    0.40810   0.20030   0.34300   Biso      1.000     H          0.14149   
         H5        1.0000    0.67720   0.27900   0.66630   Biso      1.000     H          0.141337  
         H6        1.0000    0.58810   0.03040   0.71750   Biso      1.000     H          0.13352999999999998           
         H7        1.0000    0.81230   0.03960   0.53870   Biso      1.000     H          0.11639000000000001           
         H8        1.0000    0.75870   0.03130   0.31960   Biso      1.000     H          0.140947  
         H9        1.0000    0.90510   0.73880   0.09780   Biso      1.000     H          0.130057  
         H10       1.0000    0.52920   0.99980   0.30770   Biso      1.000     H          0.13806300000000002           
         H11       1.0000    0.51560   0.22880   0.23030   Biso      1.000     H          0.119771  
         H12       1.0000    0.45480   0.23460   0.12340   Biso      1.000     H          0.10631600000000001           
         H13       1.0000    0.52770   0.06900   0.90880   Biso      1.000     H          0.08270599999999999           
         H14       1.0000    0.45152   0.25098   0.47384   Biso      1.000     H          0.31686   
         H15       1.0000    0.46132   0.99527   0.61004   Biso      1.000     H          0.30884   
         H16       1.0000    0.32155   0.28220   0.58778   Biso      1.000     H          0.356001  
         H17       1.0000    0.31253   0.04010   0.59776   Biso      1.000     H          0.291504  
         H18       1.0000    0.45550   0.01090   0.20050   Biso      1.000     H          0.092548  
         H19       1.0000    0.48700   0.08180   0.79570   Biso      1.000     H          0.116872  
         H20       1.0000    0.65140   0.26180   0.45050   Biso      1.000     H          0.11904200000000001           
         H21       1.0000    0.85820   0.16300   0.84970   Biso      1.000     H          0.093613  
         H22       1.0000    0.56410   0.35810   0.03390   Biso      1.000     H          0.143377  
         H23       1.0000    0.85610   0.43540   0.11200   Biso      1.000     H          0.127866  
         H24       1.0000    0.98340   0.32610   0.11800   Biso      1.000     H          0.085629  
         H25       1.0000    0.63010   0.47220   0.16050   Biso      1.000     H          0.131163  
         H26       1.0000    0.63900   0.47310   0.94080   Biso      1.000     H          0.13359300000000002           
         H27       1.0000    0.37340   0.64710   0.83480   Biso      1.000     H          0.129773  
         H28       1.0000    0.71080   0.25370   0.04320   Biso      1.000     H          0.083365  
         H29       1.0000    0.32690   0.67400   0.93430   Biso      1.000     H          0.11382   
         H30       1.0000    0.15630   0.92900   0.02440   Biso      1.000     H          0.110724  
         H31       1.0000    0.86600   0.81080   0.03200   Biso      1.000     H          0.124581  
         H32       1.0000    0.72140   0.92450   0.01370   Biso      1.000     H          0.078372  
         H33       1.0000    0.27440   0.85360   0.99520   Biso      1.000     H          0.133306  
         H34       1.0000    0.22270   0.53790   0.11140   Biso      1.000     H          0.12371900000000001           
         H35       1.0000    0.01080   0.51270   0.15640   Biso      1.000     H          0.121423  
         H36       1.0000    0.01450   0.03330   0.00330   Biso      1.000     H          0.06621200000000001           
         H37       1.0000    0.82810   0.17680   0.73680   Biso      1.000     H          0.12278499999999999           
         H38       1.0000    0.83640   0.19680   0.22450   Biso      1.000     H          0.093135  
         H39       1.0000    0.97960   0.04740   0.61400   Biso      1.000     H          0.11130899999999999           
         H40       1.0000    0.24060   0.23840   0.90330   Biso      1.000     H          0.102299  
         H41       1.0000    0.18940   0.23840   0.79820   Biso      1.000     H          0.130128  
         H42       1.0000    0.22510   0.00790   0.87950   Biso      1.000     H          0.134223  
         H43       1.0000    0.28270   0.01660   0.98210   Biso      1.000     H          0.080037  
         H44       1.0000    0.02950   0.02530   0.83880   Biso      1.000     H          0.123749  
         H45       1.0000    0.86680   0.96820   0.69940   Biso      1.000     H          0.12477   
         H46       1.0000    0.31900   0.19990   0.71300   Biso      1.000     H          0.135256  
         H47       1.0000    0.04570   0.27530   0.55990   Biso      1.000     H          0.11631400000000001           
         H48       1.0000    0.97290   0.38660   0.48050   Biso      1.000     H          0.11577899999999999           
         H49       1.0000    0.50389   0.80460   0.00357   Biso      1.000     H          0.343873  
         H50       1.0000    0.17750   0.05100   0.44090   Biso      1.000     H          0.142091  
         H51       1.0000    0.20100   0.10820   0.21510   Biso      1.000     H          0.090213  
         H52       1.0000    0.24660   0.11010   0.32300   Biso      1.000     H          0.12068599999999999           
         H53       1.0000    0.87010   0.20110   0.33110   Biso      1.000     H          0.126649  
         H54       1.0000    0.98690   0.29640   0.33330   Biso      1.000     H          0.12351199999999998           
         N1        1.0000    0.01670   0.15610   0.20880   Biso      1.000     N          -0.21248899999999998          
         N2        1.0000    0.86030   0.28380   0.07780   Biso      1.000     N          -0.22002  
         N3        1.0000    0.85230   0.98690   0.01850   Biso      1.000     N          -0.187006           
         N4        1.0000    0.44690   0.12000   0.15490   Biso      1.000     N          -0.215427           
         N5        1.0000    0.27420   0.12760   0.95020   Biso      1.000     N          -0.202461           
         N6        1.0000    0.69500   0.11600   0.88790   Biso      1.000     N          -0.212327           
         O1        1.0000    0.46900   0.75860   0.99080   Biso      1.000     O          -0.43501000000000006          
         O2        1.0000    0.32030   0.22740   0.58110   Biso      1.000     O          -0.398516           
         O3        1.0000    0.56900   0.99950   0.60570   Biso      1.000     O          -0.405571           
         O4        1.0000    0.39920   0.21430   0.45570   Biso      1.000     O          -0.404658           
         O5        1.0000    0.46210   0.57630   0.17730   Biso      1.000     O          -0.451484           
         O6        1.0000    0.24250   0.02470   0.56780   Biso      1.000     O          -0.40992799999999996 