
##########################################################################
#               Crystallographic Information Format file
#               Produced by PyCifRW module
#
#  This is a CIF file.  CIF has been adopted by the International
#  Union of Crystallography as the standard for data archiving and
#  transmission.
#
#  For information on this file format, follow the CIF links at
#  http://www.iucr.org
##########################################################################

data_image0

_cell_length_a                          16.176
_cell_length_b                          16.473
_cell_length_c                          16.473
_cell_angle_alpha                       76.0505
_cell_angle_beta                        60.5946
_cell_angle_gamma                       60.5946
_symmetry_space_group_name_H-M          'P 1'
_symmetry_int_tables_number             1
loop_
  _symmetry_equiv_pos_as_xyz
         'x, y, z' 
loop_
  _atom_site_label
  _atom_site_occupancy
  _atom_site_fract_x
  _atom_site_fract_y
  _atom_site_fract_z
  _atom_site_thermal_displace_type
  _atom_site_B_iso_or_equiv
  _atom_site_type_symbol
  _atom_site_charge
         C1        1.0000    0.03440   0.17010   0.86930   Biso      1.000     C          0.043692  
         C2        1.0000    0.63950   0.75860   0.41520   Biso      1.000     C          0.229165  
         C3        1.0000    0.43700   0.67910   0.44970   Biso      1.000     C          0.575501  
         C4        1.0000    0.57980   0.51370   0.27710   Biso      1.000     C          0.582129  
         C5        1.0000    0.48520   0.60480   0.29760   Biso      1.000     C          0.039237  
         C6        1.0000    0.42620   0.67010   0.36930   Biso      1.000     C          0.040019  
         C7        1.0000    0.35280   0.71580   0.27880   Biso      1.000     C          0.233321  
         C8        1.0000    0.30300   0.54830   0.06790   Biso      1.000     C          0.566397  
         C9        1.0000    0.77160   0.66370   0.44450   Biso      1.000     C          0.035394  
         C10       1.0000    0.27430   0.53000   0.29260   Biso      1.000     C          0.56793   
         C11       1.0000    0.21610   0.55550   0.16370   Biso      1.000     C          0.034504  
         C12       1.0000    0.05470   0.58480   0.25860   Biso      1.000     C          0.230793  
         C13       1.0000    0.88670   0.55030   0.17910   Biso      1.000     C          0.577545  
         C14       1.0000    0.85690   0.72290   0.01370   Biso      1.000     C          0.58017   
         C15       1.0000    0.78280   0.70240   0.10480   Biso      1.000     C          0.037248  
         C16       1.0000    0.79550   0.63070   0.17010   Biso      1.000     C          0.038043  
         C17       1.0000    0.63160   0.72120   0.21580   Biso      1.000     C          0.232499  
         C18       1.0000    0.20370   0.54960   0.25140   Biso      1.000     C          0.027119  
         C19       1.0000    0.41920   0.95170   0.43210   Biso      1.000     C          0.565445  
         C20       1.0000    0.75330   0.75140   0.45040   Biso      1.000     C          0.027716  
         C21       1.0000    0.85130   0.56790   0.45170   Biso      1.000     C          0.567081  
         C22       1.0000    0.60190   0.08480   0.75860   Biso      1.000     C          0.228378  
         C23       1.0000    0.88390   0.05030   0.67910   Biso      1.000     C          0.57794   
         C24       1.0000    0.90650   0.22290   0.51370   Biso      1.000     C          0.580923  
         C25       1.0000    0.91000   0.20240   0.60480   Biso      1.000     C          0.037581  
         C26       1.0000    0.90370   0.13070   0.67010   Biso      1.000     C          0.03687   
         C27       1.0000    0.93140   0.22120   0.71580   Biso      1.000     C          0.226074  
         C28       1.0000    0.37090   0.93210   0.04830   Biso      1.000     C          0.565389  
         C29       1.0000    0.80430   0.79260   0.47000   Biso      1.000     C          0.568496  
         C30       1.0000    0.56690   0.70740   0.03000   Biso      1.000     C          0.569858  
         C31       1.0000    0.37980   0.83630   0.05550   Biso      1.000     C          0.035376  
         C32       1.0000    0.31330   0.74140   0.08480   Biso      1.000     C          0.226981  
         C33       1.0000    0.06580   0.82090   0.05030   Biso      1.000     C          0.576558  
         C34       1.0000    0.87060   0.98630   0.22290   Biso      1.000     C          0.580483  
         C35       1.0000    0.88760   0.89520   0.20240   Biso      1.000     C          0.038697  
         C36       1.0000    0.96560   0.82990   0.13070   Biso      1.000     C          0.037464  
         C37       1.0000    0.84740   0.78420   0.22120   Biso      1.000     C          0.229251  
         C38       1.0000    0.45510   0.74860   0.04960   Biso      1.000     C          0.025053  
         C39       1.0000    0.59690   0.97000   0.20740   Biso      1.000     C          0.567545  
         C40       1.0000    0.50470   0.95040   0.24860   Biso      1.000     C          0.023579  
         C41       1.0000    0.43530   0.94450   0.33630   Biso      1.000     C          0.035754  
         C42       1.0000    0.42020   0.48630   0.72290   Biso      1.000     C          0.584164  
         C43       1.0000    0.56300   0.32090   0.55030   Biso      1.000     C          0.575453  
         C44       1.0000    0.36050   0.24140   0.58480   Biso      1.000     C          0.231977  
         C45       1.0000    0.22840   0.33630   0.55550   Biso      1.000     C          0.037394  
         C46       1.0000    0.24670   0.24860   0.54960   Biso      1.000     C          0.030828  
         C47       1.0000    0.19570   0.20740   0.53000   Biso      1.000     C          0.567776  
         C48       1.0000    0.14870   0.43210   0.54830   Biso      1.000     C          0.566761  
         C49       1.0000    0.51480   0.39520   0.70240   Biso      1.000     C          0.047235  
         C50       1.0000    0.15260   0.21580   0.77880   Biso      1.000     C          0.231507  
         C51       1.0000    0.12940   0.01370   0.77710   Biso      1.000     C          0.580789  
         C52       1.0000    0.93420   0.17910   0.94970   Biso      1.000     C          0.57743   
         C53       1.0000    0.68670   0.25860   0.91520   Biso      1.000     C          0.228996  
         C54       1.0000    0.62020   0.16370   0.94450   Biso      1.000     C          0.037089  
         C55       1.0000    0.54490   0.25140   0.95040   Biso      1.000     C          0.027064  
         C56       1.0000    0.43310   0.29260   0.97000   Biso      1.000     C          0.569399  
         C57       1.0000    0.62910   0.06790   0.95170   Biso      1.000     C          0.565109  
         C58       1.0000    0.11240   0.10480   0.79760   Biso      1.000     C          0.043142  
         C59       1.0000    0.57380   0.32990   0.63070   Biso      1.000     C          0.045353  
         C60       1.0000    0.64720   0.28420   0.72120   Biso      1.000     C          0.235909  
         C61       1.0000    0.69700   0.45170   0.93210   Biso      1.000     C          0.567284  
         C62       1.0000    0.39810   0.91520   0.24140   Biso      1.000     C          0.227834  
         C63       1.0000    0.11610   0.94970   0.32090   Biso      1.000     C          0.578648  
         C64       1.0000    0.09350   0.77710   0.48630   Biso      1.000     C          0.580923  
         C65       1.0000    0.09000   0.79760   0.39520   Biso      1.000     C          0.038832  
         C66       1.0000    0.09630   0.86930   0.32990   Biso      1.000     C          0.037546  
         C67       1.0000    0.06860   0.77880   0.28420   Biso      1.000     C          0.226775  
         C68       1.0000    0.40310   0.03000   0.79260   Biso      1.000     C          0.567736  
         C69       1.0000    0.58080   0.04830   0.56790   Biso      1.000     C          0.565327  
         C70       1.0000    0.36840   0.27880   0.78420   Biso      1.000     C          0.232033  
         C71       1.0000    0.20450   0.36930   0.82990   Biso      1.000     C          0.036622  
         C72       1.0000    0.21720   0.29760   0.89520   Biso      1.000     C          0.036926  
         C73       1.0000    0.14310   0.27710   0.98630   Biso      1.000     C          0.580207  
         C74       1.0000    0.11330   0.44970   0.82090   Biso      1.000     C          0.57663   
         C75       1.0000    0.94530   0.41520   0.74140   Biso      1.000     C          0.231702  
         C76       1.0000    0.78390   0.44450   0.83630   Biso      1.000     C          0.036282  
         C77       1.0000    0.79630   0.45040   0.74860   Biso      1.000     C          0.030106  
         C78       1.0000    0.72570   0.47000   0.70740   Biso      1.000     C          0.567588  
         C79       1.0000    0.56470   0.05550   0.66370   Biso      1.000     C          0.03596   
         C80       1.0000    0.49530   0.04960   0.75140   Biso      1.000     C          0.025867  
         Eu1       1.0000    0.23742   0.87893   0.46873   Biso      1.000     Eu          1.324574  
         Eu2       1.0000    0.76258   0.12107   0.53127   Biso      1.000     Eu          1.323983  
         Eu3       1.0000    0.03567   0.61374   0.47688   Biso      1.000     Eu          1.273957  
         Eu4       1.0000    0.08508   0.62107   0.03127   Biso      1.000     Eu          1.325296  
         Eu5       1.0000    0.62629   0.88626   0.02312   Biso      1.000     Eu          1.274093  
         Eu6       1.0000    0.70615   0.53127   0.37893   Biso      1.000     Eu          1.324799  
         Eu7       1.0000    0.51255   0.52312   0.11374   Biso      1.000     Eu          1.272916  
         Eu8       1.0000    0.11635   0.96873   0.12107   Biso      1.000     Eu          1.324366  
         Eu9       1.0000    0.64941   0.97688   0.38626   Biso      1.000     Eu          1.273548  
         Eu10      1.0000    0.96433   0.38626   0.52312   Biso      1.000     Eu          1.273545  
         Eu11      1.0000    0.91492   0.37893   0.96873   Biso      1.000     Eu          1.323709  
         Eu12      1.0000    0.37371   0.11374   0.97688   Biso      1.000     Eu          1.275363  
         Eu13      1.0000    0.29385   0.46873   0.62107   Biso      1.000     Eu          1.325616  
         Eu14      1.0000    0.48745   0.47688   0.88626   Biso      1.000     Eu          1.273385  
         Eu15      1.0000    0.88365   0.03127   0.87893   Biso      1.000     Eu          1.325997  
         Eu16      1.0000    0.35059   0.02312   0.61374   Biso      1.000     Eu          1.273307  
         H1        1.0000    0.73440   0.28110   0.90290   Biso      1.000     H          0.078512  
         H2        1.0000    0.18990   0.25140   0.75300   Biso      1.000     H          0.073837  
         H3        1.0000    0.36270   0.90290   0.21890   Biso      1.000     H          0.077011  
         H4        1.0000    0.05710   0.75300   0.24860   Biso      1.000     H          0.07568   
         H5        1.0000    0.41840   0.21890   0.59710   Biso      1.000     H          0.077842  
         H6        1.0000    0.69430   0.24860   0.74700   Biso      1.000     H          0.07377   
         H7        1.0000    0.01550   0.40290   0.71890   Biso      1.000     H          0.075839  
         H8        1.0000    0.63730   0.09710   0.78110   Biso      1.000     H          0.07663   
         H9        1.0000    0.94290   0.24700   0.75140   Biso      1.000     H          0.075826  
         H10       1.0000    0.44130   0.25300   0.74860   Biso      1.000     H          0.073071  
         H11       1.0000    0.81010   0.74860   0.24700   Biso      1.000     H          0.074095  
         H12       1.0000    0.58160   0.78110   0.40290   Biso      1.000     H          0.07767   
         H13       1.0000    0.30570   0.75140   0.25300   Biso      1.000     H          0.073886  
         H14       1.0000    0.98450   0.59710   0.28110   Biso      1.000     H          0.075941  
         H15       1.0000    0.55870   0.74700   0.25140   Biso      1.000     H          0.072993  
         H16       1.0000    0.26560   0.71890   0.09710   Biso      1.000     H          0.078122  
         N1        1.0000    0.63170   0.08220   0.66780   Biso      1.000     N          -0.401122           
         N2        1.0000    0.90130   0.43130   0.68510   Biso      1.000     N          -0.382503           
         N3        1.0000    0.51770   0.06870   0.81490   Biso      1.000     N          -0.379428           
         N4        1.0000    0.32200   0.24000   0.86460   Biso      1.000     N          -0.351769           
         N5        1.0000    0.30310   0.35680   0.75880   Biso      1.000     N          -0.394822           
         N6        1.0000    0.88170   0.41780   0.83220   Biso      1.000     N          -0.400316           
         N7        1.0000    0.56200   0.36460   0.76000   Biso      1.000     N          -0.353068           
         N8        1.0000    0.58640   0.31490   0.93130   Biso      1.000     N          -0.379558           
         N9        1.0000    0.29950   0.33220   0.58220   Biso      1.000     N          -0.400865           
         N10       1.0000    0.33260   0.18510   0.56870   Biso      1.000     N          -0.384857           
         N11       1.0000    0.18660   0.13540   0.74000   Biso      1.000     N          -0.354922           
         N12       1.0000    0.06190   0.24120   0.85680   Biso      1.000     N          -0.400228           
         N13       1.0000    0.71390   0.16780   0.91780   Biso      1.000     N          -0.4007   
         N14       1.0000    0.91870   0.14320   0.74120   Biso      1.000     N          -0.393805           
         N15       1.0000    0.65990   0.25880   0.64320   Biso      1.000     N          -0.400153           
         N16       1.0000    0.92660   0.26000   0.63540   Biso      1.000     N          -0.349589           
         N17       1.0000    0.41360   0.68510   0.06870   Biso      1.000     N          -0.378835           
         N18       1.0000    0.28610   0.83220   0.08220   Biso      1.000     N          -0.401021           
         N19       1.0000    0.08130   0.85680   0.25880   Biso      1.000     N          -0.395532           
         N20       1.0000    0.36830   0.91780   0.33220   Biso      1.000     N          -0.39971  
         N21       1.0000    0.48230   0.93130   0.18510   Biso      1.000     N          -0.37712  
         N22       1.0000    0.67800   0.76000   0.13540   Biso      1.000     N          -0.353422           
         N23       1.0000    0.69690   0.64320   0.24120   Biso      1.000     N          -0.398102           
         N24       1.0000    0.11830   0.58220   0.16780   Biso      1.000     N          -0.401142           
         N25       1.0000    0.07340   0.74000   0.36460   Biso      1.000     N          -0.351502           
         N26       1.0000    0.43800   0.63540   0.24000   Biso      1.000     N          -0.354396           
         N27       1.0000    0.34010   0.74120   0.35680   Biso      1.000     N          -0.39903  
         N28       1.0000    0.70050   0.66780   0.41780   Biso      1.000     N          -0.400478           
         N29       1.0000    0.66740   0.81490   0.43130   Biso      1.000     N          -0.382346           
         N30       1.0000    0.81340   0.86460   0.26000   Biso      1.000     N          -0.353054           
         N31       1.0000    0.93810   0.75880   0.14320   Biso      1.000     N          -0.397215           
         N32       1.0000    0.09870   0.56870   0.31490   Biso      1.000     N          -0.380924           
         O1        1.0000    0.77080   0.45790   0.61790   Biso      1.000     O          -0.489801           
         O2        1.0000    0.13250   0.50960   0.76020   Biso      1.000     O          -0.500728           
         O3        1.0000    0.02250   0.45430   0.87150   Biso      1.000     O          -0.529602           
         O4        1.0000    0.04500   0.32130   0.01970   Biso      1.000     O          -0.509296           
         O5        1.0000    0.18740   0.20900   0.03060   Biso      1.000     O          -0.467377           
         O6        1.0000    0.65060   0.06990   0.49990   Biso      1.000     O          -0.555637           
         O7        1.0000    0.34660   0.04210   0.88210   Biso      1.000     O          -0.492202           
         O8        1.0000    0.38200   0.00390   0.74330   Biso      1.000     O          -0.483014           
         O9        1.0000    0.90230   0.99040   0.73980   Biso      1.000     O          -0.503185           
         O10       1.0000    0.84830   0.04570   0.62850   Biso      1.000     O          -0.531692           
         O11       1.0000    0.88600   0.17870   0.48030   Biso      1.000     O          -0.511687           
         O12       1.0000    0.62920   0.49610   0.75670   Biso      1.000     O          -0.481715           
         O13       1.0000    0.53130   0.01580   0.55600   Biso      1.000     O          -0.560821           
         O14       1.0000    0.60310   0.48420   0.94400   Biso      1.000     O          -0.562544           
         O15       1.0000    0.08730   0.44400   0.51580   Biso      1.000     O          -0.563805           
         O16       1.0000    0.39640   0.53060   0.79100   Biso      1.000     O          -0.484852           
         O17       1.0000    0.36630   0.51970   0.67870   Biso      1.000     O          -0.529126           
         O18       1.0000    0.47680   0.37150   0.54570   Biso      1.000     O          -0.542105           
         O19       1.0000    0.64210   0.26020   0.49040   Biso      1.000     O          -0.50706  
         O20       1.0000    0.22870   0.11790   0.54210   Biso      1.000     O          -0.492772           
         O21       1.0000    0.12530   0.25670   0.50390   Biso      1.000     O          -0.481337           
         O22       1.0000    0.92700   0.29100   0.46940   Biso      1.000     O          -0.469026           
         O23       1.0000    0.15050   0.50010   0.56990   Biso      1.000     O          -0.557532           
         O24       1.0000    0.21800   0.96940   0.70900   Biso      1.000     O          -0.464177           
         O25       1.0000    0.06470   0.98030   0.82130   Biso      1.000     O          -0.518328           
         O26       1.0000    0.89400   0.12850   0.95430   Biso      1.000     O          -0.547018           
         O27       1.0000    0.89270   0.23980   0.00960   Biso      1.000     O          -0.507991           
         O28       1.0000    0.38870   0.38210   0.95790   Biso      1.000     O          -0.490757           
         O29       1.0000    0.38590   0.24330   0.99610   Biso      1.000     O          -0.48451  
         O30       1.0000    0.72040   0.43010   0.00010   Biso      1.000     O          -0.561906           
         O31       1.0000    0.27950   0.00010   0.06990   Biso      1.000     O          -0.55708  
         O32       1.0000    0.07300   0.70900   0.53060   Biso      1.000     O          -0.467869           
         O33       1.0000    0.61410   0.75670   0.00390   Biso      1.000     O          -0.481978           
         O34       1.0000    0.54710   0.05600   0.98420   Biso      1.000     O          -0.560458           
         O35       1.0000    0.11400   0.82130   0.51970   Biso      1.000     O          -0.512697           
         O36       1.0000    0.15170   0.95430   0.37150   Biso      1.000     O          -0.534472           
         O37       1.0000    0.09770   0.00960   0.26020   Biso      1.000     O          -0.506341           
         O38       1.0000    0.65340   0.95790   0.11790   Biso      1.000     O          -0.487084           
         O39       1.0000    0.61800   0.99610   0.25670   Biso      1.000     O          -0.480196           
         O40       1.0000    0.46870   0.98420   0.44400   Biso      1.000     O          -0.562521           
         O41       1.0000    0.34940   0.93010   0.50010   Biso      1.000     O          -0.554265           
         O42       1.0000    0.81260   0.79100   0.96940   Biso      1.000     O          -0.466294           
         O43       1.0000    0.95500   0.67870   0.98030   Biso      1.000     O          -0.510803           
         O44       1.0000    0.97750   0.54570   0.12850   Biso      1.000     O          -0.533745           
         O45       1.0000    0.86750   0.49040   0.23980   Biso      1.000     O          -0.505981           
         O46       1.0000    0.22920   0.54210   0.38210   Biso      1.000     O          -0.488786           
         O47       1.0000    0.37080   0.50390   0.24330   Biso      1.000     O          -0.480572           
         O48       1.0000    0.39690   0.51580   0.05600   Biso      1.000     O          -0.559476           
         O49       1.0000    0.27960   0.56990   0.99990   Biso      1.000     O          -0.555955           
         O50       1.0000    0.60360   0.46940   0.20900   Biso      1.000     O          -0.465076           
         O51       1.0000    0.63370   0.48030   0.32130   Biso      1.000     O          -0.512084           
         O52       1.0000    0.52320   0.62850   0.45430   Biso      1.000     O          -0.530749           
         O53       1.0000    0.35790   0.73980   0.50960   Biso      1.000     O          -0.504132           
         O54       1.0000    0.77130   0.88210   0.45790   Biso      1.000     O          -0.490056           
         O55       1.0000    0.87470   0.74330   0.49610   Biso      1.000     O          -0.482236           
         O56       1.0000    0.91270   0.55600   0.48420   Biso      1.000     O          -0.563197           
         O57       1.0000    0.84950   0.49990   0.43010   Biso      1.000     O          -0.555811           
         O58       1.0000    0.78200   0.03060   0.29100   Biso      1.000     O          -0.464986           
         O59       1.0000    0.93530   0.01970   0.17870   Biso      1.000     O          -0.509032           
         O60       1.0000    0.10600   0.87150   0.04570   Biso      1.000     O          -0.532128           
         O61       1.0000    0.10730   0.76020   0.99040   Biso      1.000     O          -0.503757           
         O62       1.0000    0.61130   0.61790   0.04210   Biso      1.000     O          -0.489987           
         O63       1.0000    0.45290   0.94400   0.01580   Biso      1.000     O          -0.560663           
         O64       1.0000    0.72050   0.99990   0.93010   Biso      1.000     O          -0.558976 