
##########################################################################
#               Crystallographic Information Format file
#               Produced by PyCifRW module
#
#  This is a CIF file.  CIF has been adopted by the International
#  Union of Crystallography as the standard for data archiving and
#  transmission.
#
#  For information on this file format, follow the CIF links at
#  http://www.iucr.org
##########################################################################

data_image0

_cell_length_a                          6.7002
_cell_length_b                          27.1331
_cell_length_c                          7.6817
_cell_angle_alpha                       90
_cell_angle_beta                        90
_cell_angle_gamma                       90
_symmetry_space_group_name_H-M          'P 1'
_symmetry_int_tables_number             1
loop_
  _symmetry_equiv_pos_as_xyz
         'x, y, z' 
loop_
  _atom_site_label
  _atom_site_occupancy
  _atom_site_fract_x
  _atom_site_fract_y
  _atom_site_fract_z
  _atom_site_thermal_displace_type
  _atom_site_B_iso_or_equiv
  _atom_site_type_symbol
  _atom_site_charge
         C1        1.0000    0.59390   0.43300   0.21460   Biso      1.000     C          0.154108  
         C2        1.0000    0.90340   0.38960   0.16270   Biso      1.000     C          0.082843  
         C3        1.0000    0.83340   0.20990   0.02040   Biso      1.000     C          0.587637  
         C4        1.0000    0.64070   0.34810   0.28070   Biso      1.000     C          0.119653  
         C5        1.0000    0.82970   0.16290   0.30240   Biso      1.000     C          -0.405618           
         C6        1.0000    0.79410   0.43340   0.15720   Biso      1.000     C          -0.215545           
         C7        1.0000    0.75320   0.20280   0.42510   Biso      1.000     C          0.692936  
         C8        1.0000    0.95780   0.18050   0.15030   Biso      1.000     C          0.070136  
         C9        1.0000    0.46840   0.47710   0.21550   Biso      1.000     C          -0.139641           
         C10       1.0000    0.51600   0.38940   0.27470   Biso      1.000     C          -0.194851           
         C11       1.0000    0.09660   0.61040   0.16270   Biso      1.000     C          0.082861  
         C12       1.0000    0.16660   0.79010   0.02040   Biso      1.000     C          0.587657  
         C13       1.0000    0.35930   0.65190   0.28070   Biso      1.000     C          0.119688  
         C14       1.0000    0.17030   0.83710   0.30240   Biso      1.000     C          -0.405673           
         C15       1.0000    0.20590   0.56660   0.15720   Biso      1.000     C          -0.215547           
         C16       1.0000    0.48400   0.61060   0.27470   Biso      1.000     C          -0.194846           
         C17       1.0000    0.04220   0.81950   0.15030   Biso      1.000     C          0.070167  
         C18       1.0000    0.53160   0.52290   0.21550   Biso      1.000     C          -0.139601           
         C19       1.0000    0.98400   0.88940   0.72530   Biso      1.000     C          -0.19484  
         C20       1.0000    0.54220   0.68050   0.84970   Biso      1.000     C          0.070167  
         C21       1.0000    0.74680   0.70280   0.57490   Biso      1.000     C          0.692947  
         C22       1.0000    0.96840   0.02290   0.78450   Biso      1.000     C          -0.139644           
         C23       1.0000    0.40340   0.11040   0.83730   Biso      1.000     C          0.082852  
         C24       1.0000    0.33340   0.29010   0.97960   Biso      1.000     C          0.58763   
         C25       1.0000    0.14070   0.15190   0.71930   Biso      1.000     C          0.119664  
         C26       1.0000    0.32970   0.33710   0.69760   Biso      1.000     C          -0.405611           
         C27       1.0000    0.29410   0.06660   0.84280   Biso      1.000     C          -0.215545           
         C28       1.0000    0.09390   0.06700   0.78540   Biso      1.000     C          0.154118  
         C29       1.0000    0.25320   0.29720   0.57490   Biso      1.000     C          0.692932  
         C30       1.0000    0.45780   0.31950   0.84970   Biso      1.000     C          0.070128  
         C31       1.0000    0.01600   0.11060   0.72530   Biso      1.000     C          -0.194849           
         C32       1.0000    0.03160   0.97710   0.78450   Biso      1.000     C          -0.139592           
         C33       1.0000    0.59660   0.88960   0.83730   Biso      1.000     C          0.082862  
         C34       1.0000    0.66660   0.70990   0.97960   Biso      1.000     C          0.587653  
         C35       1.0000    0.85930   0.84810   0.71930   Biso      1.000     C          0.119692  
         C36       1.0000    0.67030   0.66290   0.69760   Biso      1.000     C          -0.405671           
         C37       1.0000    0.70590   0.93340   0.84280   Biso      1.000     C          -0.215545           
         C38       1.0000    0.90610   0.93300   0.78540   Biso      1.000     C          0.154122  
         C39       1.0000    0.24680   0.79720   0.42510   Biso      1.000     C          0.692949  
         C40       1.0000    0.40610   0.56700   0.21460   Biso      1.000     C          0.154124  
         Co1       1.0000    0.99587   0.71742   0.24966   Biso      1.000     Co          0.809573  
         Co2       1.0000    0.00413   0.28258   0.24966   Biso      1.000     Co          0.809533  
         Co3       1.0000    0.49587   0.78258   0.75034   Biso      1.000     Co          0.809596  
         Co4       1.0000    0.50413   0.21742   0.75034   Biso      1.000     Co          0.809801  
         H1        1.0000    0.53180   0.11070   0.88330   Biso      1.000     H          0.098045  
         H2        1.0000    0.71560   0.14540   0.25570   Biso      1.000     H          0.148837  
         H3        1.0000    0.85210   0.46240   0.11660   Biso      1.000     H          0.126066  
         H4        1.0000    0.01040   0.15130   0.09040   Biso      1.000     H          0.081494  
         H5        1.0000    0.38370   0.38740   0.31050   Biso      1.000     H          0.135055  
         H6        1.0000    0.66900   0.52780   0.21620   Biso      1.000     H          0.114601  
         H7        1.0000    0.96820   0.61070   0.11670   Biso      1.000     H          0.098053  
         H8        1.0000    0.09290   0.86050   0.37010   Biso      1.000     H          0.146696  
         H9        1.0000    0.90710   0.13950   0.37010   Biso      1.000     H          0.1467    
         H10       1.0000    0.28440   0.85460   0.25570   Biso      1.000     H          0.148817  
         H11       1.0000    0.83100   0.02780   0.78380   Biso      1.000     H          0.114603  
         H12       1.0000    0.98960   0.84870   0.09040   Biso      1.000     H          0.081485  
         H13       1.0000    0.61630   0.61260   0.31050   Biso      1.000     H          0.135059  
         H14       1.0000    0.41300   0.68130   0.32170   Biso      1.000     H          0.110304  
         H15       1.0000    0.58700   0.31870   0.32170   Biso      1.000     H          0.110296  
         H16       1.0000    0.14790   0.53760   0.11660   Biso      1.000     H          0.126067  
         H17       1.0000    0.33100   0.47220   0.21620   Biso      1.000     H          0.114602  
         H18       1.0000    0.40710   0.36050   0.62990   Biso      1.000     H          0.146701  
         H19       1.0000    0.21560   0.35460   0.74430   Biso      1.000     H          0.148846  
         H20       1.0000    0.35210   0.03760   0.88340   Biso      1.000     H          0.126066  
         H21       1.0000    0.51040   0.34870   0.90960   Biso      1.000     H          0.081496  
         H22       1.0000    0.88370   0.11260   0.68950   Biso      1.000     H          0.135055  
         H23       1.0000    0.16900   0.97220   0.78380   Biso      1.000     H          0.114601  
         H24       1.0000    0.08700   0.18130   0.67830   Biso      1.000     H          0.110293  
         H25       1.0000    0.03180   0.38930   0.11670   Biso      1.000     H          0.098047  
         H26       1.0000    0.91300   0.81870   0.67830   Biso      1.000     H          0.110307  
         H27       1.0000    0.59290   0.63950   0.62990   Biso      1.000     H          0.146698  
         H28       1.0000    0.78440   0.64540   0.74430   Biso      1.000     H          0.14882   
         H29       1.0000    0.64790   0.96240   0.88340   Biso      1.000     H          0.126068  
         H30       1.0000    0.48960   0.65130   0.90960   Biso      1.000     H          0.081492  
         H31       1.0000    0.11630   0.88740   0.68950   Biso      1.000     H          0.135061  
         H32       1.0000    0.46820   0.88930   0.88330   Biso      1.000     H          0.098056  
         N1        1.0000    0.66950   0.84810   0.76830   Biso      1.000     N          -0.158772           
         N2        1.0000    0.33050   0.15190   0.76830   Biso      1.000     N          -0.158877           
         N3        1.0000    0.16950   0.65190   0.23170   Biso      1.000     N          -0.158789           
         N4        1.0000    0.83050   0.34810   0.23170   Biso      1.000     N          -0.15883  
         O1        1.0000    0.35650   0.24360   0.97550   Biso      1.000     O          -0.438709           
         O2        1.0000    0.62420   0.29200   0.78160   Biso      1.000     O          -0.443587           
         O3        1.0000    0.22230   0.31300   0.07810   Biso      1.000     O          -0.473256           
         O4        1.0000    0.84160   0.68610   0.44890   Biso      1.000     O          -0.505175           
         O5        1.0000    0.71030   0.74790   0.60020   Biso      1.000     O          -0.502687           
         O6        1.0000    0.64350   0.75640   0.97550   Biso      1.000     O          -0.438676           
         O7        1.0000    0.37580   0.70800   0.78160   Biso      1.000     O          -0.443862           
         O8        1.0000    0.77770   0.68700   0.07810   Biso      1.000     O          -0.473243           
         O9        1.0000    0.65840   0.18610   0.55110   Biso      1.000     O          -0.505253           
         O10       1.0000    0.78970   0.24790   0.39980   Biso      1.000     O          -0.502788           
         O11       1.0000    0.12420   0.20800   0.21840   Biso      1.000     O          -0.443626           
         O12       1.0000    0.72230   0.18700   0.92190   Biso      1.000     O          -0.473278           
         O13       1.0000    0.34160   0.81390   0.55110   Biso      1.000     O          -0.505195           
         O14       1.0000    0.21030   0.75210   0.39980   Biso      1.000     O          -0.502684           
         O15       1.0000    0.14350   0.74360   0.02450   Biso      1.000     O          -0.438672           
         O16       1.0000    0.87580   0.79200   0.21840   Biso      1.000     O          -0.44391  
         O17       1.0000    0.27770   0.81300   0.92190   Biso      1.000     O          -0.473252           
         O18       1.0000    0.28970   0.25210   0.60020   Biso      1.000     O          -0.502806           
         O19       1.0000    0.85650   0.25640   0.02450   Biso      1.000     O          -0.438664           
         O20       1.0000    0.15840   0.31390   0.44890   Biso      1.000     O          -0.505209 