
##########################################################################
#               Crystallographic Information Format file
#               Produced by PyCifRW module
#
#  This is a CIF file.  CIF has been adopted by the International
#  Union of Crystallography as the standard for data archiving and
#  transmission.
#
#  For information on this file format, follow the CIF links at
#  http://www.iucr.org
##########################################################################

data_image0

_cell_length_a                          9.4298
_cell_length_b                          13.3185
_cell_length_c                          23.224
_cell_angle_alpha                       94.584
_cell_angle_beta                        90
_cell_angle_gamma                       90
_symmetry_space_group_name_H-M          'P 1'
_symmetry_int_tables_number             1
loop_
  _symmetry_equiv_pos_as_xyz
         'x, y, z' 
loop_
  _atom_site_label
  _atom_site_occupancy
  _atom_site_fract_x
  _atom_site_fract_y
  _atom_site_fract_z
  _atom_site_thermal_displace_type
  _atom_site_B_iso_or_equiv
  _atom_site_type_symbol
  _atom_site_charge
         C1        1.0000    0.96600   0.12460   0.73500   Biso      1.000     C          -0.158973           
         C2        1.0000    0.84520   0.42869   0.76269   Biso      1.000     C          0.126388  
         C3        1.0000    0.96600   0.37540   0.76500   Biso      1.000     C          -0.15895  
         C4        1.0000    0.06380   0.37220   0.72050   Biso      1.000     C          -0.098572           
         C5        1.0000    0.04040   0.42147   0.67307   Biso      1.000     C          -0.028593           
         C6        1.0000    0.14700   0.42239   0.62559   Biso      1.000     C          0.593436  
         C7        1.0000    0.75520   0.95807   0.65337   Biso      1.000     C          0.116799  
         C8        1.0000    0.88280   0.91060   0.64570   Biso      1.000     C          -0.172128           
         C9        1.0000    0.89410   0.81940   0.61190   Biso      1.000     C          -0.107641           
         C10       1.0000    0.77940   0.77640   0.58460   Biso      1.000     C          -0.030112           
         C11       1.0000    0.65070   0.82390   0.59300   Biso      1.000     C          -0.100167           
         C12       1.0000    0.63810   0.91210   0.62640   Biso      1.000     C          -0.165858           
         C13       1.0000    0.79080   0.68029   0.54679   Biso      1.000     C          0.605201  
         C14       1.0000    0.73120   0.14646   0.64986   Biso      1.000     C          0.125623  
         C15       1.0000    0.62620   0.21650   0.65840   Biso      1.000     C          -0.158724           
         C16       1.0000    0.61340   0.29510   0.62290   Biso      1.000     C          -0.089843           
         C17       1.0000    0.71130   0.30431   0.57851   Biso      1.000     C          -0.042029           
         C18       1.0000    0.81800   0.23480   0.57050   Biso      1.000     C          -0.090962           
         C19       1.0000    0.82820   0.15630   0.60570   Biso      1.000     C          -0.156407           
         C20       1.0000    0.69630   0.38715   0.53955   Biso      1.000     C          0.610474  
         C21       1.0000    0.49590   0.60590   0.65020   Biso      1.000     C          0.111195  
         C22       1.0000    0.50240   0.66510   0.70210   Biso      1.000     C          -0.194005           
         C23       1.0000    0.38760   0.72020   0.72180   Biso      1.000     C          0.116581  
         C24       1.0000    0.27000   0.71730   0.68560   Biso      1.000     C          -0.186288           
         C25       1.0000    0.82070   0.47830   0.71460   Biso      1.000     C          -0.169752           
         C26       1.0000    0.27310   0.65930   0.63410   Biso      1.000     C          0.097434  
         C27       1.0000    0.91600   0.47460   0.66950   Biso      1.000     C          -0.103396           
         C28       1.0000    0.75520   0.54193   0.84663   Biso      1.000     C          0.1168    
         C29       1.0000    0.84520   0.07131   0.73731   Biso      1.000     C          0.126409  
         C30       1.0000    0.73740   0.05907   0.68867   Biso      1.000     C          -0.153749           
         C31       1.0000    0.06380   0.12780   0.77950   Biso      1.000     C          -0.098569           
         C32       1.0000    0.04040   0.07853   0.82693   Biso      1.000     C          -0.028594           
         C33       1.0000    0.14700   0.07761   0.87441   Biso      1.000     C          0.593436  
         C34       1.0000    0.27310   0.84070   0.86590   Biso      1.000     C          0.097427  
         C35       1.0000    0.27000   0.78270   0.81440   Biso      1.000     C          -0.186282           
         C36       1.0000    0.38760   0.77980   0.77820   Biso      1.000     C          0.116572  
         C37       1.0000    0.50240   0.83490   0.79790   Biso      1.000     C          -0.193996           
         C38       1.0000    0.49590   0.89410   0.84980   Biso      1.000     C          0.111195  
         C39       1.0000    0.69630   0.11285   0.96045   Biso      1.000     C          0.610474  
         C40       1.0000    0.82820   0.34370   0.89430   Biso      1.000     C          -0.156405           
         C41       1.0000    0.81800   0.26520   0.92950   Biso      1.000     C          -0.090972           
         C42       1.0000    0.71130   0.19569   0.92149   Biso      1.000     C          -0.042021           
         C43       1.0000    0.61340   0.20490   0.87710   Biso      1.000     C          -0.089842           
         C44       1.0000    0.62620   0.28350   0.84160   Biso      1.000     C          -0.158732           
         C45       1.0000    0.73120   0.35354   0.85014   Biso      1.000     C          0.12563   
         C46       1.0000    0.79080   0.81971   0.95321   Biso      1.000     C          0.605202  
         C47       1.0000    0.63810   0.58790   0.87360   Biso      1.000     C          -0.165868           
         C48       1.0000    0.65070   0.67610   0.90700   Biso      1.000     C          -0.100158           
         C49       1.0000    0.77940   0.72360   0.91540   Biso      1.000     C          -0.030124           
         C50       1.0000    0.89410   0.68060   0.88810   Biso      1.000     C          -0.107628           
         C51       1.0000    0.88280   0.58940   0.85430   Biso      1.000     C          -0.17213  
         C52       1.0000    0.73740   0.44093   0.81133   Biso      1.000     C          -0.153748           
         C53       1.0000    0.85300   0.57761   0.37441   Biso      1.000     C          0.593438  
         C54       1.0000    0.95960   0.57853   0.32693   Biso      1.000     C          -0.028621           
         C55       1.0000    0.93620   0.62780   0.27950   Biso      1.000     C          -0.098544           
         C56       1.0000    0.15480   0.92869   0.26269   Biso      1.000     C          0.126388  
         C57       1.0000    0.17930   0.97830   0.21460   Biso      1.000     C          -0.169751           
         C58       1.0000    0.08400   0.97460   0.16950   Biso      1.000     C          -0.1034   
         C59       1.0000    0.26260   0.94093   0.31133   Biso      1.000     C          -0.153747           
         C60       1.0000    0.24480   0.04193   0.34663   Biso      1.000     C          0.116798  
         C61       1.0000    0.11720   0.08940   0.35430   Biso      1.000     C          -0.172128           
         C62       1.0000    0.10590   0.18060   0.38810   Biso      1.000     C          -0.107641           
         C63       1.0000    0.22060   0.22360   0.41540   Biso      1.000     C          -0.030111           
         C64       1.0000    0.34930   0.17610   0.40700   Biso      1.000     C          -0.100167           
         C65       1.0000    0.36190   0.08790   0.37360   Biso      1.000     C          -0.165858           
         C66       1.0000    0.20920   0.31971   0.45321   Biso      1.000     C          0.605201  
         C67       1.0000    0.26880   0.85354   0.35014   Biso      1.000     C          0.125623  
         C68       1.0000    0.37380   0.78350   0.34160   Biso      1.000     C          -0.158724           
         C69       1.0000    0.38660   0.70490   0.37710   Biso      1.000     C          -0.089843           
         C70       1.0000    0.28870   0.69569   0.42149   Biso      1.000     C          -0.042029           
         C71       1.0000    0.18200   0.76520   0.42950   Biso      1.000     C          -0.090962           
         C72       1.0000    0.17180   0.84370   0.39430   Biso      1.000     C          -0.156408           
         C73       1.0000    0.30370   0.61285   0.46045   Biso      1.000     C          0.610474  
         C74       1.0000    0.50410   0.39410   0.34980   Biso      1.000     C          0.111195  
         C75       1.0000    0.49760   0.33490   0.29790   Biso      1.000     C          -0.194005           
         C76       1.0000    0.61240   0.27980   0.27820   Biso      1.000     C          0.11658   
         C77       1.0000    0.73000   0.28270   0.31440   Biso      1.000     C          -0.186288           
         C78       1.0000    0.72690   0.34070   0.36590   Biso      1.000     C          0.097434  
         C79       1.0000    0.03400   0.87540   0.26500   Biso      1.000     C          -0.158951           
         C80       1.0000    0.93620   0.87220   0.22050   Biso      1.000     C          -0.098573           
         C81       1.0000    0.95960   0.92147   0.17307   Biso      1.000     C          -0.028589           
         C82       1.0000    0.85300   0.92239   0.12559   Biso      1.000     C          0.593436  
         C83       1.0000    0.03400   0.62460   0.23500   Biso      1.000     C          -0.158975           
         C84       1.0000    0.15480   0.57131   0.23731   Biso      1.000     C          0.126409  
         C85       1.0000    0.17930   0.52170   0.28540   Biso      1.000     C          -0.169754           
         C86       1.0000    0.08400   0.52540   0.33050   Biso      1.000     C          -0.103392           
         C87       1.0000    0.26260   0.55907   0.18867   Biso      1.000     C          -0.15375  
         C88       1.0000    0.24480   0.45807   0.15337   Biso      1.000     C          0.116799  
         C89       1.0000    0.11720   0.41060   0.14570   Biso      1.000     C          -0.172128           
         C90       1.0000    0.10590   0.31940   0.11190   Biso      1.000     C          -0.107641           
         C91       1.0000    0.22060   0.27640   0.08460   Biso      1.000     C          -0.030112           
         C92       1.0000    0.34930   0.32390   0.09300   Biso      1.000     C          -0.100167           
         C93       1.0000    0.36190   0.41210   0.12640   Biso      1.000     C          -0.165858           
         C94       1.0000    0.82070   0.02170   0.78540   Biso      1.000     C          -0.169754           
         C95       1.0000    0.20920   0.18029   0.04679   Biso      1.000     C          0.605201  
         C96       1.0000    0.37380   0.71650   0.15840   Biso      1.000     C          -0.158732           
         C97       1.0000    0.38660   0.79510   0.12290   Biso      1.000     C          -0.089842           
         C98       1.0000    0.28870   0.80431   0.07851   Biso      1.000     C          -0.042029           
         C99       1.0000    0.18200   0.73480   0.07050   Biso      1.000     C          -0.090962           
         C100      1.0000    0.17180   0.65630   0.10570   Biso      1.000     C          -0.156409           
         C101      1.0000    0.30370   0.88715   0.03955   Biso      1.000     C          0.610474  
         C102      1.0000    0.50410   0.10590   0.15020   Biso      1.000     C          0.111195  
         C103      1.0000    0.49760   0.16510   0.20210   Biso      1.000     C          -0.194005           
         C104      1.0000    0.61240   0.22020   0.22180   Biso      1.000     C          0.116581  
         C105      1.0000    0.73000   0.21730   0.18560   Biso      1.000     C          -0.186288           
         C106      1.0000    0.72690   0.15930   0.13410   Biso      1.000     C          0.097434  
         C107      1.0000    0.26880   0.64646   0.14986   Biso      1.000     C          0.125631  
         C108      1.0000    0.91600   0.02540   0.83050   Biso      1.000     C          -0.103395           
         Cd1       1.0000    0.34797   0.02746   0.95459   Biso      1.000     Cd          0.955997  
         Cd2       1.0000    0.34797   0.47254   0.54541   Biso      1.000     Cd          0.955997  
         Cd3       1.0000    0.65203   0.97254   0.04541   Biso      1.000     Cd          0.955997  
         Cd4       1.0000    0.65203   0.52746   0.45459   Biso      1.000     Cd          0.955997  
         Cd5       1.0000    0.00000   0.50000   0.50000   Biso      1.000     Cd          1.142124  
         Cd6       1.0000    0.00000   0.00000   0.00000   Biso      1.000     Cd          1.142124  
         H1        1.0000    0.80600   0.34040   0.38970   Biso      1.000     H          0.10389   
         H2        1.0000    0.19400   0.84040   0.88970   Biso      1.000     H          0.10389   
         H3        1.0000    0.98400   0.16010   0.70290   Biso      1.000     H          0.107811  
         H4        1.0000    0.73770   0.98470   0.78800   Biso      1.000     H          0.103074  
         H5        1.0000    0.89640   0.99190   0.86320   Biso      1.000     H          0.110227  
         H6        1.0000    0.64420   0.05670   0.70720   Biso      1.000     H          0.098798  
         H7        1.0000    0.96340   0.93930   0.66320   Biso      1.000     H          0.111127  
         H8        1.0000    0.54940   0.94220   0.63130   Biso      1.000     H          0.115217  
         H9        1.0000    0.57040   0.79500   0.57530   Biso      1.000     H          0.113472  
         H10       1.0000    0.18960   0.74530   0.80370   Biso      1.000     H          0.132582  
         H11       1.0000    0.56230   0.21170   0.68860   Biso      1.000     H          0.116499  
         H12       1.0000    0.53990   0.34140   0.62860   Biso      1.000     H          0.114477  
         H13       1.0000    0.88410   0.24060   0.54130   Biso      1.000     H          0.119894  
         H14       1.0000    0.98170   0.78750   0.60800   Biso      1.000     H          0.109564  
         H15       1.0000    0.58550   0.83280   0.77630   Biso      1.000     H          0.128786  
         H16       1.0000    0.88410   0.25940   0.95870   Biso      1.000     H          0.119895  
         H17       1.0000    0.90090   0.39050   0.90030   Biso      1.000     H          0.116113  
         H18       1.0000    0.90090   0.10950   0.59970   Biso      1.000     H          0.116113  
         H19       1.0000    0.53990   0.15860   0.87140   Biso      1.000     H          0.114477  
         H20       1.0000    0.56230   0.28830   0.81140   Biso      1.000     H          0.116499  
         H21       1.0000    0.54940   0.55780   0.86870   Biso      1.000     H          0.115217  
         H22       1.0000    0.57040   0.70500   0.92470   Biso      1.000     H          0.113472  
         H23       1.0000    0.98170   0.71250   0.89200   Biso      1.000     H          0.109563  
         H24       1.0000    0.96340   0.56070   0.83680   Biso      1.000     H          0.111128  
         H25       1.0000    0.64420   0.44330   0.79280   Biso      1.000     H          0.098799  
         H26       1.0000    0.89640   0.50810   0.63680   Biso      1.000     H          0.110228  
         H27       1.0000    0.73770   0.51530   0.71200   Biso      1.000     H          0.103074  
         H28       1.0000    0.98400   0.33990   0.79710   Biso      1.000     H          0.107809  
         H29       1.0000    0.14710   0.33560   0.72350   Biso      1.000     H          0.112582  
         H30       1.0000    0.57470   0.93280   0.86110   Biso      1.000     H          0.094659  
         H31       1.0000    0.57470   0.56720   0.63890   Biso      1.000     H          0.094659  
         H32       1.0000    0.14710   0.16440   0.77650   Biso      1.000     H          0.112582  
         H33       1.0000    0.18960   0.75470   0.69630   Biso      1.000     H          0.132583  
         H34       1.0000    0.01600   0.83990   0.29710   Biso      1.000     H          0.107809  
         H35       1.0000    0.26230   0.01530   0.21200   Biso      1.000     H          0.103074  
         H36       1.0000    0.10360   0.00810   0.13680   Biso      1.000     H          0.110228  
         H37       1.0000    0.35580   0.94330   0.29280   Biso      1.000     H          0.098798  
         H38       1.0000    0.03660   0.06070   0.33680   Biso      1.000     H          0.111127  
         H39       1.0000    0.01830   0.21250   0.39200   Biso      1.000     H          0.109564  
         H40       1.0000    0.42960   0.20500   0.42470   Biso      1.000     H          0.113472  
         H41       1.0000    0.45060   0.05780   0.36870   Biso      1.000     H          0.115217  
         H42       1.0000    0.43770   0.78830   0.31140   Biso      1.000     H          0.116499  
         H43       1.0000    0.46010   0.65860   0.37140   Biso      1.000     H          0.114477  
         H44       1.0000    0.58550   0.66720   0.72370   Biso      1.000     H          0.128786  
         H45       1.0000    0.09910   0.89050   0.40030   Biso      1.000     H          0.116114  
         H46       1.0000    0.42530   0.43280   0.36110   Biso      1.000     H          0.094659  
         H47       1.0000    0.41450   0.33280   0.27630   Biso      1.000     H          0.128786  
         H48       1.0000    0.81040   0.24530   0.30370   Biso      1.000     H          0.132583  
         H49       1.0000    0.85290   0.83560   0.22350   Biso      1.000     H          0.112582  
         H50       1.0000    0.80600   0.15960   0.11030   Biso      1.000     H          0.10389   
         H51       1.0000    0.11590   0.75940   0.45870   Biso      1.000     H          0.119894  
         H52       1.0000    0.41450   0.16720   0.22370   Biso      1.000     H          0.128786  
         H53       1.0000    0.81040   0.25470   0.19630   Biso      1.000     H          0.132583  
         H54       1.0000    0.19400   0.65960   0.61030   Biso      1.000     H          0.10389   
         H55       1.0000    0.01600   0.66010   0.20290   Biso      1.000     H          0.107811  
         H56       1.0000    0.26230   0.48470   0.28800   Biso      1.000     H          0.103075  
         H57       1.0000    0.10360   0.49190   0.36320   Biso      1.000     H          0.110227  
         H58       1.0000    0.35580   0.55670   0.20720   Biso      1.000     H          0.098798  
         H59       1.0000    0.03660   0.43930   0.16320   Biso      1.000     H          0.111127  
         H60       1.0000    0.01830   0.28750   0.10800   Biso      1.000     H          0.109564  
         H61       1.0000    0.85290   0.66440   0.27650   Biso      1.000     H          0.11258   
         H62       1.0000    0.45060   0.44220   0.13130   Biso      1.000     H          0.115217  
         H63       1.0000    0.43770   0.71170   0.18860   Biso      1.000     H          0.116499  
         H64       1.0000    0.46010   0.84140   0.12860   Biso      1.000     H          0.114477  
         H65       1.0000    0.42530   0.06720   0.13890   Biso      1.000     H          0.094659  
         H66       1.0000    0.11590   0.74060   0.04130   Biso      1.000     H          0.119894  
         H67       1.0000    0.42960   0.29500   0.07530   Biso      1.000     H          0.113472  
         H68       1.0000    0.09910   0.60950   0.09970   Biso      1.000     H          0.116113  
         N1        1.0000    0.61510   0.10185   0.11635   Biso      1.000     N          -0.216198           
         N2        1.0000    0.61510   0.39815   0.38365   Biso      1.000     N          -0.216198           
         N3        1.0000    0.38490   0.89815   0.88365   Biso      1.000     N          -0.216197           
         N4        1.0000    0.38490   0.60185   0.61635   Biso      1.000     N          -0.216198           
         O1        1.0000    0.88660   0.53527   0.41917   Biso      1.000     O          -0.62461  
         O2        1.0000    0.41560   0.56140   0.45970   Biso      1.000     O          -0.582077           
         O3        1.0000    0.20680   0.59712   0.49502   Biso      1.000     O          -0.596486           
         O4        1.0000    0.73190   0.88772   0.13132   Biso      1.000     O          -0.565959           
         O5        1.0000    0.88660   0.96473   0.08083   Biso      1.000     O          -0.62461  
         O6        1.0000    0.31460   0.15715   0.01675   Biso      1.000     O          -0.550984           
         O7        1.0000    0.09620   0.13091   0.04871   Biso      1.000     O          -0.595471           
         O8        1.0000    0.20680   0.90288   0.00498   Biso      1.000     O          -0.596486           
         O9        1.0000    0.41560   0.93860   0.04030   Biso      1.000     O          -0.582077           
         O10       1.0000    0.73190   0.61228   0.36868   Biso      1.000     O          -0.56596  
         O11       1.0000    0.68540   0.65715   0.51675   Biso      1.000     O          -0.550984           
         O12       1.0000    0.26810   0.38772   0.63132   Biso      1.000     O          -0.565959           
         O13       1.0000    0.79320   0.40288   0.50498   Biso      1.000     O          -0.596486           
         O14       1.0000    0.58440   0.43860   0.54030   Biso      1.000     O          -0.582077           
         O15       1.0000    0.26810   0.11228   0.86868   Biso      1.000     O          -0.565959           
         O16       1.0000    0.11340   0.03527   0.91917   Biso      1.000     O          -0.62461  
         O17       1.0000    0.68540   0.84285   0.98325   Biso      1.000     O          -0.550984           
         O18       1.0000    0.90380   0.86909   0.95129   Biso      1.000     O          -0.595472           
         O19       1.0000    0.79320   0.09712   0.99502   Biso      1.000     O          -0.596486           
         O20       1.0000    0.58440   0.06140   0.95970   Biso      1.000     O          -0.582077           
         O21       1.0000    0.11340   0.46473   0.58083   Biso      1.000     O          -0.62461  
         O22       1.0000    0.09620   0.36909   0.45129   Biso      1.000     O          -0.595471           
         O23       1.0000    0.90380   0.63091   0.54871   Biso      1.000     O          -0.595471           
         O24       1.0000    0.31460   0.34285   0.48325   Biso      1.000     O          -0.550984 