
##########################################################################
#               Crystallographic Information Format file
#               Produced by PyCifRW module
#
#  This is a CIF file.  CIF has been adopted by the International
#  Union of Crystallography as the standard for data archiving and
#  transmission.
#
#  For information on this file format, follow the CIF links at
#  http://www.iucr.org
##########################################################################

data_image0

_cell_length_a                          12.17
_cell_length_b                          13.601
_cell_length_c                          17.4
_cell_angle_alpha                       90
_cell_angle_beta                        90
_cell_angle_gamma                       90
_symmetry_space_group_name_H-M          'P 1'
_symmetry_int_tables_number             1
loop_
  _symmetry_equiv_pos_as_xyz
         'x, y, z' 
loop_
  _atom_site_label
  _atom_site_occupancy
  _atom_site_fract_x
  _atom_site_fract_y
  _atom_site_fract_z
  _atom_site_thermal_displace_type
  _atom_site_B_iso_or_equiv
  _atom_site_type_symbol
  _atom_site_charge
         C1        1.0000    0.03560   0.27460   0.27040   Biso      1.000     C          0.587049  
         C2        1.0000    0.74800   0.94770   0.69480   Biso      1.000     C          0.085609  
         C3        1.0000    0.57920   0.93040   0.70800   Biso      1.000     C          0.132637  
         C4        1.0000    0.35240   0.91930   0.12280   Biso      1.000     C          0.591049  
         C5        1.0000    0.46480   0.88540   0.14388   Biso      1.000     C          -0.025128           
         C6        1.0000    0.46440   0.77460   0.27040   Biso      1.000     C          0.587054  
         C7        1.0000    0.50890   0.83030   0.20388   Biso      1.000     C          -0.006021           
         C8        1.0000    0.64160   0.88370   0.13307   Biso      1.000     C          0.349935  
         C9        1.0000    0.75490   0.90710   0.10510   Biso      1.000     C          -0.224749           
         C10       1.0000    0.75200   0.05230   0.19480   Biso      1.000     C          0.085621  
         C11       1.0000    0.74510   0.09290   0.60510   Biso      1.000     C          -0.224745           
         C12       1.0000    0.92080   0.06960   0.20800   Biso      1.000     C          0.13266   
         C13       1.0000    0.96480   0.61460   0.85612   Biso      1.000     C          -0.025128           
         C14       1.0000    0.96440   0.72540   0.72960   Biso      1.000     C          0.587055  
         C15       1.0000    0.00890   0.66970   0.79612   Biso      1.000     C          -0.006009           
         C16       1.0000    0.14160   0.61630   0.86693   Biso      1.000     C          0.349942  
         C17       1.0000    0.25490   0.59290   0.89490   Biso      1.000     C          -0.224754           
         C18       1.0000    0.25200   0.44770   0.80520   Biso      1.000     C          0.085596  
         C19       1.0000    0.42080   0.43040   0.79200   Biso      1.000     C          0.132642  
         C20       1.0000    0.64760   0.41930   0.37720   Biso      1.000     C          0.591059  
         C21       1.0000    0.53520   0.38540   0.35612   Biso      1.000     C          -0.025117           
         C22       1.0000    0.85240   0.58070   0.87720   Biso      1.000     C          0.591049  
         C23       1.0000    0.53560   0.27460   0.22960   Biso      1.000     C          0.587052  
         C24       1.0000    0.85840   0.11630   0.63307   Biso      1.000     C          0.349906  
         C25       1.0000    0.03560   0.22540   0.77040   Biso      1.000     C          0.587043  
         C26       1.0000    0.24800   0.94770   0.80520   Biso      1.000     C          0.085614  
         C27       1.0000    0.07920   0.93040   0.79200   Biso      1.000     C          0.132653  
         C28       1.0000    0.14760   0.41930   0.12280   Biso      1.000     C          0.59105   
         C29       1.0000    0.03520   0.38540   0.14388   Biso      1.000     C          -0.025122           
         C30       1.0000    0.49110   0.16970   0.79612   Biso      1.000     C          -0.006013           
         C31       1.0000    0.99110   0.33030   0.20388   Biso      1.000     C          -0.006018           
         C32       1.0000    0.85840   0.38370   0.13307   Biso      1.000     C          0.349944  
         C33       1.0000    0.74510   0.40710   0.10510   Biso      1.000     C          -0.224749           
         C34       1.0000    0.74800   0.55230   0.19480   Biso      1.000     C          0.085615  
         C35       1.0000    0.99110   0.16970   0.70388   Biso      1.000     C          -0.006027           
         C36       1.0000    0.57920   0.56960   0.20800   Biso      1.000     C          0.132653  
         C37       1.0000    0.46480   0.61460   0.64388   Biso      1.000     C          -0.025124           
         C38       1.0000    0.46440   0.72540   0.77040   Biso      1.000     C          0.587058  
         C39       1.0000    0.50890   0.66970   0.70388   Biso      1.000     C          -0.005998           
         C40       1.0000    0.64160   0.61630   0.63307   Biso      1.000     C          0.349946  
         C41       1.0000    0.75490   0.59290   0.60510   Biso      1.000     C          -0.224755           
         C42       1.0000    0.75200   0.44770   0.69480   Biso      1.000     C          0.085604  
         C43       1.0000    0.92080   0.43040   0.70800   Biso      1.000     C          0.132658  
         C44       1.0000    0.14760   0.08070   0.62280   Biso      1.000     C          0.591031  
         C45       1.0000    0.03520   0.11460   0.64388   Biso      1.000     C          -0.025137           
         C46       1.0000    0.35240   0.58070   0.62280   Biso      1.000     C          0.591059  
         C47       1.0000    0.49110   0.33030   0.29612   Biso      1.000     C          -0.006007           
         C48       1.0000    0.35840   0.38370   0.36693   Biso      1.000     C          0.349954  
         C49       1.0000    0.24510   0.40710   0.39490   Biso      1.000     C          -0.224756           
         C50       1.0000    0.85240   0.91930   0.37720   Biso      1.000     C          0.591039  
         C51       1.0000    0.96480   0.88540   0.35612   Biso      1.000     C          -0.025124           
         C52       1.0000    0.96440   0.77460   0.22960   Biso      1.000     C          0.587054  
         C53       1.0000    0.00890   0.83030   0.29612   Biso      1.000     C          -0.006036           
         C54       1.0000    0.14160   0.88370   0.36693   Biso      1.000     C          0.349925  
         C55       1.0000    0.25490   0.90710   0.39490   Biso      1.000     C          -0.224743           
         C56       1.0000    0.25200   0.05230   0.30520   Biso      1.000     C          0.085616  
         C57       1.0000    0.42080   0.06960   0.29200   Biso      1.000     C          0.132651  
         C58       1.0000    0.64760   0.08070   0.87720   Biso      1.000     C          0.591039  
         C59       1.0000    0.53520   0.11460   0.85612   Biso      1.000     C          -0.025142           
         C60       1.0000    0.53560   0.22540   0.72960   Biso      1.000     C          0.587044  
         C61       1.0000    0.24510   0.09290   0.89490   Biso      1.000     C          -0.224751           
         C62       1.0000    0.35840   0.11630   0.86693   Biso      1.000     C          0.349913  
         C63       1.0000    0.24800   0.55230   0.30520   Biso      1.000     C          0.085622  
         C64       1.0000    0.07920   0.56960   0.29200   Biso      1.000     C          0.132665  
         H1        1.0000    0.51170   0.59470   0.22360   Biso      1.000     H          0.102042  
         H2        1.0000    0.25180   0.92950   0.44780   Biso      1.000     H          0.148106  
         H3        1.0000    0.30040   0.84860   0.39290   Biso      1.000     H          0.15994   
         H4        1.0000    0.17620   0.06000   0.30220   Biso      1.000     H          0.112736  
         H5        1.0000    0.48830   0.09470   0.27640   Biso      1.000     H          0.102037  
         H6        1.0000    0.24820   0.07050   0.94780   Biso      1.000     H          0.148088  
         H7        1.0000    0.19960   0.15140   0.89290   Biso      1.000     H          0.159934  
         H8        1.0000    0.32380   0.94000   0.80220   Biso      1.000     H          0.112733  
         H9        1.0000    0.01170   0.90530   0.77640   Biso      1.000     H          0.102036  
         H10       1.0000    0.74820   0.42950   0.05220   Biso      1.000     H          0.148118  
         H11       1.0000    0.01170   0.59470   0.27640   Biso      1.000     H          0.102049  
         H12       1.0000    0.32380   0.56000   0.30220   Biso      1.000     H          0.11274   
         H13       1.0000    0.19960   0.34860   0.39290   Biso      1.000     H          0.159973  
         H14       1.0000    0.24820   0.42950   0.44780   Biso      1.000     H          0.14814   
         H15       1.0000    0.48830   0.40530   0.77640   Biso      1.000     H          0.102033  
         H16       1.0000    0.17620   0.44000   0.80220   Biso      1.000     H          0.112727  
         H17       1.0000    0.75180   0.57050   0.55220   Biso      1.000     H          0.148108  
         H18       1.0000    0.80040   0.65140   0.60710   Biso      1.000     H          0.159946  
         H19       1.0000    0.67620   0.44000   0.69780   Biso      1.000     H          0.112732  
         H20       1.0000    0.98830   0.40530   0.72360   Biso      1.000     H          0.10204   
         H21       1.0000    0.74820   0.07050   0.55220   Biso      1.000     H          0.148078  
         H22       1.0000    0.69960   0.15140   0.60710   Biso      1.000     H          0.159928  
         H23       1.0000    0.82380   0.56000   0.19780   Biso      1.000     H          0.112736  
         H24       1.0000    0.82380   0.94000   0.69780   Biso      1.000     H          0.11273   
         H25       1.0000    0.69960   0.34860   0.10710   Biso      1.000     H          0.159959  
         H26       1.0000    0.80040   0.84860   0.10710   Biso      1.000     H          0.159952  
         H27       1.0000    0.67620   0.06000   0.19780   Biso      1.000     H          0.112738  
         H28       1.0000    0.98830   0.09470   0.22360   Biso      1.000     H          0.102042  
         H29       1.0000    0.25180   0.57050   0.94780   Biso      1.000     H          0.148095  
         H30       1.0000    0.30040   0.65140   0.89290   Biso      1.000     H          0.159945  
         H31       1.0000    0.51170   0.90530   0.72360   Biso      1.000     H          0.102031  
         H32       1.0000    0.75180   0.92950   0.05220   Biso      1.000     H          0.14812   
         Mn1       1.0000    0.21266   0.75497   0.21202   Biso      1.000     Mn          0.942675  
         Mn2       1.0000    0.00000   0.00000   0.50000   Biso      1.000     Mn          0.962074  
         Mn3       1.0000    0.28734   0.24503   0.71202   Biso      1.000     Mn          0.942413  
         Mn4       1.0000    0.71266   0.74503   0.78798   Biso      1.000     Mn          0.942628  
         Mn5       1.0000    0.78734   0.24503   0.78798   Biso      1.000     Mn          0.942504  
         Mn6       1.0000    0.71266   0.75497   0.28798   Biso      1.000     Mn          0.942609  
         Mn7       1.0000    0.78734   0.25497   0.28798   Biso      1.000     Mn          0.942664  
         Mn8       1.0000    0.28734   0.25497   0.21202   Biso      1.000     Mn          0.942653  
         Mn9       1.0000    0.50000   0.50000   0.50000   Biso      1.000     Mn          0.962266  
         Mn10      1.0000    0.00000   0.50000   0.00000   Biso      1.000     Mn          0.962215  
         Mn11      1.0000    0.50000   0.00000   0.00000   Biso      1.000     Mn          0.962188  
         Mn12      1.0000    0.21266   0.74503   0.71202   Biso      1.000     Mn          0.942636  
         N1        1.0000    0.87830   0.33110   0.19643   Biso      1.000     N          -0.37812  
         N2        1.0000    0.82410   0.39180   0.73090   Biso      1.000     N          -0.326361           
         N3        1.0000    0.62170   0.66890   0.69643   Biso      1.000     N          -0.378096           
         N4        1.0000    0.55070   0.58120   0.60008   Biso      1.000     N          -0.425814           
         N5        1.0000    0.69770   0.48390   0.15376   Biso      1.000     N          0.203383  
         N6        1.0000    0.58820   0.49380   0.16200   Biso      1.000     N          -0.257215           
         N7        1.0000    0.67590   0.60820   0.23090   Biso      1.000     N          -0.326386           
         N8        1.0000    0.94930   0.41880   0.10008   Biso      1.000     N          -0.425791           
         N9        1.0000    0.41180   0.99380   0.33800   Biso      1.000     N          -0.257236           
         N10       1.0000    0.17590   0.89180   0.76910   Biso      1.000     N          -0.326399           
         N11       1.0000    0.37830   0.16890   0.80357   Biso      1.000     N          -0.378081           
         N12       1.0000    0.44930   0.08120   0.89992   Biso      1.000     N          -0.42583  
         N13       1.0000    0.30230   0.98390   0.34624   Biso      1.000     N          0.203399  
         N14       1.0000    0.91180   0.50620   0.66200   Biso      1.000     N          -0.25726  
         N15       1.0000    0.32410   0.10820   0.26910   Biso      1.000     N          -0.326408           
         N16       1.0000    0.12170   0.83110   0.30357   Biso      1.000     N          -0.378142           
         N17       1.0000    0.05070   0.91880   0.39992   Biso      1.000     N          -0.425774           
         N18       1.0000    0.08820   0.00620   0.83800   Biso      1.000     N          -0.257244           
         N19       1.0000    0.80230   0.51610   0.65376   Biso      1.000     N          0.203378  
         N20       1.0000    0.19770   0.01610   0.84624   Biso      1.000     N          0.203394  
         N21       1.0000    0.87830   0.16890   0.69643   Biso      1.000     N          -0.378117           
         N22       1.0000    0.94930   0.08120   0.60008   Biso      1.000     N          -0.425812           
         N23       1.0000    0.19770   0.48390   0.34624   Biso      1.000     N          0.203383  
         N24       1.0000    0.08820   0.49380   0.33800   Biso      1.000     N          -0.257194           
         N25       1.0000    0.37830   0.33110   0.30357   Biso      1.000     N          -0.378109           
         N26       1.0000    0.44930   0.41880   0.39992   Biso      1.000     N          -0.4258   
         N27       1.0000    0.30230   0.51610   0.84624   Biso      1.000     N          0.203367  
         N28       1.0000    0.41180   0.50620   0.83800   Biso      1.000     N          -0.257273           
         N29       1.0000    0.32410   0.39180   0.76910   Biso      1.000     N          -0.326361           
         N30       1.0000    0.12170   0.66890   0.80357   Biso      1.000     N          -0.378107           
         N31       1.0000    0.17590   0.60820   0.26910   Biso      1.000     N          -0.326382           
         N32       1.0000    0.05070   0.58120   0.89992   Biso      1.000     N          -0.425807           
         N33       1.0000    0.80230   0.98390   0.15376   Biso      1.000     N          0.203387  
         N34       1.0000    0.91180   0.99380   0.16200   Biso      1.000     N          -0.257211           
         N35       1.0000    0.82410   0.10820   0.23090   Biso      1.000     N          -0.326393           
         N36       1.0000    0.62170   0.83110   0.19643   Biso      1.000     N          -0.37811  
         N37       1.0000    0.55070   0.91880   0.10008   Biso      1.000     N          -0.425792           
         N38       1.0000    0.69770   0.01610   0.65376   Biso      1.000     N          0.203383  
         N39       1.0000    0.58820   0.00620   0.66200   Biso      1.000     N          -0.257249           
         N40       1.0000    0.67590   0.89180   0.73090   Biso      1.000     N          -0.326414           
         O1        1.0000    0.36460   0.74817   0.77376   Biso      1.000     O          -0.578297           
         O2        1.0000    0.34840   0.51527   0.57056   Biso      1.000     O          -0.574636           
         O3        1.0000    0.26780   0.61360   0.65448   Biso      1.000     O          -0.542746           
         O4        1.0000    0.96630   0.24889   0.32087   Biso      1.000     O          -0.557026           
         O5        1.0000    0.13540   0.25183   0.27376   Biso      1.000     O          -0.578304           
         O6        1.0000    0.15160   0.48473   0.07056   Biso      1.000     O          -0.574622           
         O7        1.0000    0.65160   0.01527   0.92944   Biso      1.000     O          -0.574681           
         O8        1.0000    0.46630   0.25111   0.67913   Biso      1.000     O          -0.557069           
         O9        1.0000    0.63540   0.24817   0.72624   Biso      1.000     O          -0.578323           
         O10       1.0000    0.86460   0.75183   0.22624   Biso      1.000     O          -0.578315           
         O11       1.0000    0.73220   0.11360   0.84552   Biso      1.000     O          -0.54276  
         O12       1.0000    0.03370   0.74889   0.17913   Biso      1.000     O          -0.55706  
         O13       1.0000    0.53370   0.75111   0.82087   Biso      1.000     O          -0.557037           
         O14       1.0000    0.23220   0.38640   0.15448   Biso      1.000     O          -0.542767           
         O15       1.0000    0.23220   0.11360   0.65448   Biso      1.000     O          -0.542779           
         O16       1.0000    0.86460   0.74817   0.72624   Biso      1.000     O          -0.578298           
         O17       1.0000    0.13540   0.24817   0.77376   Biso      1.000     O          -0.578314           
         O18       1.0000    0.96630   0.25111   0.82087   Biso      1.000     O          -0.557091           
         O19       1.0000    0.26780   0.88640   0.15448   Biso      1.000     O          -0.542769           
         O20       1.0000    0.34840   0.98473   0.07056   Biso      1.000     O          -0.574622           
         O21       1.0000    0.36460   0.75183   0.27376   Biso      1.000     O          -0.578319           
         O22       1.0000    0.53370   0.74889   0.32087   Biso      1.000     O          -0.557038           
         O23       1.0000    0.76780   0.61360   0.84552   Biso      1.000     O          -0.542762           
         O24       1.0000    0.84840   0.51527   0.92944   Biso      1.000     O          -0.57464  
         O25       1.0000    0.03370   0.75111   0.67913   Biso      1.000     O          -0.557038           
         O26       1.0000    0.73220   0.38640   0.34552   Biso      1.000     O          -0.542755           
         O27       1.0000    0.65160   0.48473   0.42944   Biso      1.000     O          -0.574617           
         O28       1.0000    0.63540   0.25183   0.22624   Biso      1.000     O          -0.578301           
         O29       1.0000    0.46630   0.24889   0.17913   Biso      1.000     O          -0.557023           
         O30       1.0000    0.84840   0.98473   0.42944   Biso      1.000     O          -0.574637           
         O31       1.0000    0.15160   0.01527   0.57056   Biso      1.000     O          -0.574698           
         O32       1.0000    0.76780   0.88640   0.34552   Biso      1.000     O          -0.542788 