
##########################################################################
#               Crystallographic Information Format file
#               Produced by PyCifRW module
#
#  This is a CIF file.  CIF has been adopted by the International
#  Union of Crystallography as the standard for data archiving and
#  transmission.
#
#  For information on this file format, follow the CIF links at
#  http://www.iucr.org
##########################################################################

data_image0

_cell_length_a                          11.95
_cell_length_b                          12.114
_cell_length_c                          13.6683
_cell_angle_alpha                       63.6955
_cell_angle_beta                        81.1713
_cell_angle_gamma                       69.7359
_symmetry_space_group_name_H-M          'P 1'
_symmetry_int_tables_number             1
loop_
  _symmetry_equiv_pos_as_xyz
         'x, y, z' 
loop_
  _atom_site_label
  _atom_site_occupancy
  _atom_site_fract_x
  _atom_site_fract_y
  _atom_site_fract_z
  _atom_site_thermal_displace_type
  _atom_site_B_iso_or_equiv
  _atom_site_type_symbol
  _atom_site_charge
         C1        1.0000    0.66410   0.26350   0.00000   Biso      1.000     C          0.249819  
         C2        1.0000    0.95040   0.94780   0.45520   Biso      1.000     C          -0.118816           
         C3        1.0000    0.04340   0.31630   0.72300   Biso      1.000     C          0.244234  
         C4        1.0000    0.06670   0.51400   0.56400   Biso      1.000     C          -0.11290599999999999          
         C5        1.0000    0.01840   0.41300   0.61000   Biso      1.000     C          0.04856   
         C6        1.0000    0.95040   0.40300   0.54480   Biso      1.000     C          -0.11991500000000001          
         C7        1.0000    0.95660   0.96070   0.72300   Biso      1.000     C          0.246069  
         C8        1.0000    0.93330   0.92200   0.56400   Biso      1.000     C          -0.11525999999999999          
         C9        1.0000    0.98160   0.97700   0.61000   Biso      1.000     C          0.050474  
         C10       1.0000    0.04960   0.05220   0.54480   Biso      1.000     C          -0.11860699999999999          
         C11       1.0000    0.04340   0.03930   0.27700   Biso      1.000     C          0.24538000000000001           
         C12       1.0000    0.04960   0.59700   0.45520   Biso      1.000     C          -0.119723           
         C13       1.0000    0.98160   0.58700   0.39000   Biso      1.000     C          0.048152  
         C14       1.0000    0.93330   0.48600   0.43600   Biso      1.000     C          -0.11260899999999999          
         C15       1.0000    0.95660   0.68370   0.27700   Biso      1.000     C          0.24490599999999998           
         C16       1.0000    0.61870   0.47790   0.00000   Biso      1.000     C          -0.122321           
         C17       1.0000    0.58280   0.38340   0.00000   Biso      1.000     C          0.063209  
         C18       1.0000    0.46950   0.40350   0.00000   Biso      1.000     C          -0.129486           
         C19       1.0000    0.38130   0.52210   0.00000   Biso      1.000     C          -0.12226500000000001          
         C20       1.0000    0.41720   0.61660   0.00000   Biso      1.000     C          0.062875  
         C21       1.0000    0.53050   0.59650   0.00000   Biso      1.000     C          -0.129113           
         C22       1.0000    0.33590   0.73650   0.00000   Biso      1.000     C          0.250596  
         C23       1.0000    0.50000   0.03130   0.93740   Biso      1.000     C          0.464479  
         C24       1.0000    0.50000   0.96870   0.06260   Biso      1.000     C          0.46427799999999997           
         C25       1.0000    0.01840   0.02300   0.39000   Biso      1.000     C          0.050787  
         C26       1.0000    0.06670   0.07800   0.43600   Biso      1.000     C          -0.11563399999999999          
         Fe1       1.0000    0.00000   0.00000   0.00000   Biso      1.000     Fe          0.257581  
         Fe2       1.0000    0.26032   0.10522   0.00000   Biso      1.000     Fe          0.800335  
         Fe3       1.0000    0.73968   0.89478   0.00000   Biso      1.000     Fe          0.767755  
         H1        1.0000    0.55710   0.66020   0.00000   Biso      1.000     H          0.11046500000000001           
         H2        1.0000    0.08550   0.08710   0.57480   Biso      1.000     H          0.11987300000000001           
         H3        1.0000    0.88910   0.86720   0.60700   Biso      1.000     H          0.12190999999999999           
         H4        1.0000    0.91450   0.33810   0.57480   Biso      1.000     H          0.120081  
         H5        1.0000    0.11090   0.52580   0.60700   Biso      1.000     H          0.120824  
         H6        1.0000    0.30040   0.53290   0.00000   Biso      1.000     H          0.114908  
         H7        1.0000    0.91450   0.91290   0.42520   Biso      1.000     H          0.119902  
         H8        1.0000    0.11090   0.13280   0.39300   Biso      1.000     H          0.12188800000000001           
         H9        1.0000    0.08550   0.66190   0.42520   Biso      1.000     H          0.12005299999999999           
         H10       1.0000    0.88910   0.47420   0.39300   Biso      1.000     H          0.120849  
         H11       1.0000    0.69960   0.46710   0.00000   Biso      1.000     H          0.11495   
         H12       1.0000    0.44290   0.33980   0.00000   Biso      1.000     H          0.11038599999999998           
         N1        1.0000    0.86760   0.80510   0.12580   Biso      1.000     N          -0.07343999999999999          
         N2        1.0000    0.86180   0.70732   0.22096   Biso      1.000     N          -0.234821           
         N3        1.0000    0.78650   0.23160   0.00000   Biso      1.000     N          -0.252934           
         N4        1.0000    0.82210   0.11680   0.00000   Biso      1.000     N          0.055447  
         N5        1.0000    0.21350   0.76840   0.00000   Biso      1.000     N          -0.25284  
         N6        1.0000    0.63150   0.17040   0.00000   Biso      1.000     N          -0.241999           
         N7        1.0000    0.36850   0.82960   0.00000   Biso      1.000     N          -0.24224  
         N8        1.0000    0.17790   0.88320   0.00000   Biso      1.000     N          0.056088  
         N9        1.0000    0.26720   0.92100   0.00000   Biso      1.000     N          -0.06665700000000001          
         N10       1.0000    0.96590   0.83464   0.12412   Biso      1.000     N          0.043369  
         N11       1.0000    0.73280   0.07900   0.00000   Biso      1.000     N          -0.063287           
         N12       1.0000    0.02060   0.76197   0.21806   Biso      1.000     N          -0.22372899999999998          
         N13       1.0000    0.13240   0.19490   0.87420   Biso      1.000     N          -0.083358           
         N14       1.0000    0.13240   0.06910   0.12580   Biso      1.000     N          -0.08217  
         N15       1.0000    0.03410   0.04124   0.12412   Biso      1.000     N          0.047658  
         N16       1.0000    0.97940   0.01997   0.21806   Biso      1.000     N          -0.224836           
         N17       1.0000    0.13820   0.29268   0.77904   Biso      1.000     N          -0.234114           
         N18       1.0000    0.03410   0.16536   0.87588   Biso      1.000     N          0.044218  
         N19       1.0000    0.97940   0.23803   0.78194   Biso      1.000     N          -0.22381900000000002          
         N20       1.0000    0.86180   0.92828   0.77904   Biso      1.000     N          -0.233794           
         N21       1.0000    0.86760   0.93090   0.87420   Biso      1.000     N          -0.072504           
         N22       1.0000    0.96590   0.95876   0.87588   Biso      1.000     N          0.046810000000000004          
         N23       1.0000    0.02060   0.98003   0.78194   Biso      1.000     N          -0.22508899999999998          
         N24       1.0000    0.13820   0.07172   0.22096   Biso      1.000     N          -0.232763           
         O1        1.0000    0.40380   0.99426   0.10908   Biso      1.000     O          -0.395756           
         O2        1.0000    0.59620   0.00574   0.89092   Biso      1.000     O          -0.387481           
         O3        1.0000    0.40380   0.10334   0.89092   Biso      1.000     O          -0.396511           
         O4        1.0000    0.59620   0.89666   0.10908   Biso      1.000     O          -0.388371 