
##########################################################################
#               Crystallographic Information Format file
#               Produced by PyCifRW module
#
#  This is a CIF file.  CIF has been adopted by the International
#  Union of Crystallography as the standard for data archiving and
#  transmission.
#
#  For information on this file format, follow the CIF links at
#  http://www.iucr.org
##########################################################################

data_image0

_cell_length_a                          10.101
_cell_length_b                          15.679
_cell_length_c                          19.16
_cell_angle_alpha                       96.41
_cell_angle_beta                        90
_cell_angle_gamma                       90
_symmetry_space_group_name_H-M          'P 1'
_symmetry_int_tables_number             1
loop_
  _symmetry_equiv_pos_as_xyz
         'x, y, z' 
loop_
  _atom_site_label
  _atom_site_occupancy
  _atom_site_fract_x
  _atom_site_fract_y
  _atom_site_fract_z
  _atom_site_thermal_displace_type
  _atom_site_B_iso_or_equiv
  _atom_site_type_symbol
  _atom_site_charge
         C1        1.0000    0.75780   0.20780   0.90670   Biso      1.000     C          0.076953  
         C2        1.0000    0.85970   0.06790   0.82510   Biso      1.000     C          -0.201368           
         C3        1.0000    0.83010   0.06240   0.89520   Biso      1.000     C          0.224521  
         C4        1.0000    0.78240   0.13320   0.93700   Biso      1.000     C          -0.192909           
         C5        1.0000    0.83070   0.38080   0.04490   Biso      1.000     C          0.105004  
         C6        1.0000    0.83920   0.30600   0.07650   Biso      1.000     C          -0.215596           
         C7        1.0000    0.78670   0.30600   0.14330   Biso      1.000     C          0.226954  
         C8        1.0000    0.72790   0.37970   0.17610   Biso      1.000     C          -0.199816           
         C9        1.0000    0.72410   0.45170   0.14040   Biso      1.000     C          0.081762  
         C10       1.0000    0.82340   0.69080   0.91040   Biso      1.000     C          0.106302  
         C11       1.0000    0.83760   0.76570   0.87850   Biso      1.000     C          -0.204265           
         C12       1.0000    0.85850   0.84150   0.92130   Biso      1.000     C          0.235068  
         C13       1.0000    0.87300   0.84030   0.99320   Biso      1.000     C          -0.226878           
         C14       1.0000    0.85740   0.76300   0.02050   Biso      1.000     C          0.070648  
         C15       1.0000    0.65470   0.51270   0.77770   Biso      1.000     C          0.083837  
         C16       1.0000    0.64630   0.59000   0.74910   Biso      1.000     C          -0.204514           
         C17       1.0000    0.83460   0.14440   0.79870   Biso      1.000     C          0.064029  
         C18       1.0000    0.67610   0.58960   0.67850   Biso      1.000     C          0.239619  
         C19       1.0000    0.78480   0.93880   0.17080   Biso      1.000     C          0.082031  
         C20       1.0000    0.85370   0.09000   0.24910   Biso      1.000     C          -0.204513           
         C21       1.0000    0.35970   0.43210   0.67490   Biso      1.000     C          -0.201368           
         C22       1.0000    0.33010   0.43760   0.60480   Biso      1.000     C          0.224522  
         C23       1.0000    0.28240   0.36680   0.56300   Biso      1.000     C          -0.192908           
         C24       1.0000    0.25780   0.29220   0.59330   Biso      1.000     C          0.076954  
         C25       1.0000    0.33070   0.11920   0.45510   Biso      1.000     C          0.105005  
         C26       1.0000    0.33920   0.19400   0.42350   Biso      1.000     C          -0.215598           
         C27       1.0000    0.28670   0.19400   0.35670   Biso      1.000     C          0.226959  
         C28       1.0000    0.22790   0.12030   0.32390   Biso      1.000     C          -0.199816           
         C29       1.0000    0.22410   0.04830   0.35960   Biso      1.000     C          0.08176   
         C30       1.0000    0.32340   0.80920   0.58960   Biso      1.000     C          0.106302  
         C31       1.0000    0.33760   0.73430   0.62150   Biso      1.000     C          -0.204264           
         C32       1.0000    0.35850   0.65850   0.57870   Biso      1.000     C          0.235068  
         C33       1.0000    0.37300   0.65970   0.50680   Biso      1.000     C          -0.226878           
         C34       1.0000    0.35740   0.73700   0.47950   Biso      1.000     C          0.070648  
         C35       1.0000    0.84530   0.01270   0.27770   Biso      1.000     C          0.083838  
         C36       1.0000    0.79310   0.01280   0.13770   Biso      1.000     C          -0.20127  
         C37       1.0000    0.33460   0.35560   0.70130   Biso      1.000     C          0.064029  
         C38       1.0000    0.70690   0.51280   0.63770   Biso      1.000     C          -0.201272           
         C39       1.0000    0.66540   0.64440   0.29870   Biso      1.000     C          0.064022  
         C40       1.0000    0.16540   0.85560   0.20130   Biso      1.000     C          0.064024  
         C41       1.0000    0.14030   0.93210   0.17490   Biso      1.000     C          -0.201365           
         C42       1.0000    0.16990   0.93760   0.10480   Biso      1.000     C          0.224522  
         C43       1.0000    0.21760   0.86680   0.06300   Biso      1.000     C          -0.192909           
         C44       1.0000    0.24220   0.79220   0.09330   Biso      1.000     C          0.076954  
         C45       1.0000    0.16930   0.61920   0.95510   Biso      1.000     C          0.105002  
         C46       1.0000    0.16080   0.69400   0.92350   Biso      1.000     C          -0.215596           
         C47       1.0000    0.21330   0.69400   0.85670   Biso      1.000     C          0.226954  
         C48       1.0000    0.27210   0.62030   0.82390   Biso      1.000     C          -0.199818           
         C49       1.0000    0.27590   0.54830   0.85960   Biso      1.000     C          0.081759  
         C50       1.0000    0.17660   0.30920   0.08960   Biso      1.000     C          0.106301  
         C51       1.0000    0.16240   0.23430   0.12150   Biso      1.000     C          -0.204266           
         C52       1.0000    0.14150   0.15850   0.07870   Biso      1.000     C          0.235068  
         C53       1.0000    0.12700   0.15970   0.00680   Biso      1.000     C          -0.226878           
         C54       1.0000    0.14260   0.23700   0.97950   Biso      1.000     C          0.070649  
         C55       1.0000    0.21520   0.06120   0.82920   Biso      1.000     C          0.082029  
         C56       1.0000    0.71520   0.43880   0.67080   Biso      1.000     C          0.082035  
         C57       1.0000    0.20690   0.98720   0.86230   Biso      1.000     C          -0.201272           
         C58       1.0000    0.14630   0.91000   0.75090   Biso      1.000     C          -0.204512           
         C59       1.0000    0.64030   0.56790   0.32510   Biso      1.000     C          -0.201364           
         C60       1.0000    0.66990   0.56240   0.39520   Biso      1.000     C          0.224521  
         C61       1.0000    0.71760   0.63320   0.43700   Biso      1.000     C          -0.192909           
         C62       1.0000    0.74220   0.70780   0.40670   Biso      1.000     C          0.076953  
         C63       1.0000    0.66930   0.88080   0.54490   Biso      1.000     C          0.105005  
         C64       1.0000    0.66080   0.80600   0.57650   Biso      1.000     C          -0.215598           
         C65       1.0000    0.71330   0.80600   0.64330   Biso      1.000     C          0.226956  
         C66       1.0000    0.77210   0.87970   0.67610   Biso      1.000     C          -0.199817           
         C67       1.0000    0.77590   0.95170   0.64040   Biso      1.000     C          0.081763  
         C68       1.0000    0.67660   0.19080   0.41040   Biso      1.000     C          0.106301  
         C69       1.0000    0.66240   0.26570   0.37850   Biso      1.000     C          -0.204266           
         C70       1.0000    0.64150   0.34150   0.42130   Biso      1.000     C          0.235067  
         C71       1.0000    0.62700   0.34030   0.49320   Biso      1.000     C          -0.226878           
         C72       1.0000    0.64260   0.26300   0.52050   Biso      1.000     C          0.070648  
         C73       1.0000    0.15470   0.98730   0.72230   Biso      1.000     C          0.083835  
         C74       1.0000    0.17610   0.91040   0.82150   Biso      1.000     C          0.239618  
         C75       1.0000    0.28480   0.56120   0.32920   Biso      1.000     C          0.082031  
         C76       1.0000    0.82390   0.08960   0.17850   Biso      1.000     C          0.239618  
         C77       1.0000    0.32390   0.41040   0.32150   Biso      1.000     C          0.239614  
         C78       1.0000    0.35370   0.41000   0.25090   Biso      1.000     C          -0.204511           
         C79       1.0000    0.34530   0.48730   0.22230   Biso      1.000     C          0.083837  
         C80       1.0000    0.29310   0.48720   0.36230   Biso      1.000     C          -0.20127  
         H1        1.0000    0.76510   0.00950   0.09130   Biso      1.000     H          0.141609  
         H2        1.0000    0.74920   0.88400   0.14010   Biso      1.000     H          0.073448  
         H3        1.0000    0.84140   0.14490   0.74150   Biso      1.000     H          0.045313  
         H4        1.0000    0.90400   0.02230   0.79260   Biso      1.000     H          0.125127  
         H5        1.0000    0.74930   0.13740   0.99080   Biso      1.000     H          0.125254  
         H6        1.0000    0.71180   0.25690   0.94110   Biso      1.000     H          0.08895   
         H7        1.0000    0.87680   0.37580   0.99620   Biso      1.000     H          0.093485  
         H8        1.0000    0.89850   0.25760   0.05010   Biso      1.000     H          0.118901  
         H9        1.0000    0.68890   0.38280   0.22370   Biso      1.000     H          0.131012  
         H10       1.0000    0.68100   0.50390   0.16750   Biso      1.000     H          0.074641  
         H11       1.0000    0.79090   0.63960   0.88260   Biso      1.000     H          0.085813  
         H12       1.0000    0.82240   0.76240   0.83070   Biso      1.000     H          0.139586  
         H13       1.0000    0.90100   0.88640   0.02550   Biso      1.000     H          0.13162   
         H14       1.0000    0.88510   0.14100   0.28400   Biso      1.000     H          0.132641  
         H15       1.0000    0.85900   0.01650   0.33220   Biso      1.000     H          0.082307  
         H16       1.0000    0.40100   0.61360   0.47450   Biso      1.000     H          0.13162   
         H17       1.0000    0.87920   0.76300   0.07400   Biso      1.000     H          0.084778  
         H18       1.0000    0.32240   0.73760   0.66930   Biso      1.000     H          0.139586  
         H19       1.0000    0.18100   0.99610   0.33250   Biso      1.000     H          0.074642  
         H20       1.0000    0.18890   0.11720   0.27630   Biso      1.000     H          0.131014  
         H21       1.0000    0.39850   0.24240   0.44990   Biso      1.000     H          0.118901  
         H22       1.0000    0.37680   0.12420   0.50380   Biso      1.000     H          0.093485  
         H23       1.0000    0.21180   0.24310   0.55890   Biso      1.000     H          0.08895   
         H24       1.0000    0.24930   0.36260   0.50920   Biso      1.000     H          0.125253  
         H25       1.0000    0.40400   0.47770   0.70740   Biso      1.000     H          0.125127  
         H26       1.0000    0.34140   0.35510   0.75850   Biso      1.000     H          0.045312  
         H27       1.0000    0.24920   0.61600   0.35990   Biso      1.000     H          0.073449  
         H28       1.0000    0.26510   0.49050   0.40870   Biso      1.000     H          0.141608  
         H29       1.0000    0.38510   0.35900   0.21600   Biso      1.000     H          0.132643  
         H30       1.0000    0.35900   0.48350   0.16780   Biso      1.000     H          0.082309  
         H31       1.0000    0.37920   0.73700   0.42600   Biso      1.000     H          0.084778  
         H32       1.0000    0.64100   0.51650   0.83220   Biso      1.000     H          0.082308  
         H33       1.0000    0.29090   0.86040   0.61740   Biso      1.000     H          0.085813  
         H34       1.0000    0.73490   0.50950   0.59130   Biso      1.000     H          0.141609  
         H35       1.0000    0.61490   0.64100   0.78400   Biso      1.000     H          0.132642  
         H36       1.0000    0.09900   0.11360   0.97450   Biso      1.000     H          0.13162   
         H37       1.0000    0.17760   0.23760   0.16930   Biso      1.000     H          0.139587  
         H38       1.0000    0.20910   0.36040   0.11740   Biso      1.000     H          0.085813  
         H39       1.0000    0.31900   0.49610   0.83250   Biso      1.000     H          0.074642  
         H40       1.0000    0.31110   0.61720   0.77630   Biso      1.000     H          0.131014  
         H41       1.0000    0.10150   0.74240   0.94990   Biso      1.000     H          0.118902  
         H42       1.0000    0.12320   0.62420   0.00380   Biso      1.000     H          0.093486  
         H43       1.0000    0.28820   0.74310   0.05890   Biso      1.000     H          0.088951  
         H44       1.0000    0.25070   0.86260   0.00920   Biso      1.000     H          0.125254  
         H45       1.0000    0.09600   0.97770   0.20740   Biso      1.000     H          0.125127  
         H46       1.0000    0.15860   0.85510   0.25850   Biso      1.000     H          0.045313  
         H47       1.0000    0.25080   0.11600   0.85990   Biso      1.000     H          0.07345   
         H48       1.0000    0.23490   0.99050   0.90870   Biso      1.000     H          0.141609  
         H49       1.0000    0.11490   0.85900   0.71600   Biso      1.000     H          0.132642  
         H50       1.0000    0.12080   0.23700   0.92600   Biso      1.000     H          0.084778  
         H51       1.0000    0.14100   0.98350   0.66780   Biso      1.000     H          0.082309  
         H52       1.0000    0.65860   0.64490   0.24150   Biso      1.000     H          0.045313  
         H53       1.0000    0.59600   0.52230   0.29260   Biso      1.000     H          0.125128  
         H54       1.0000    0.75070   0.63740   0.49080   Biso      1.000     H          0.125254  
         H55       1.0000    0.78820   0.75690   0.44110   Biso      1.000     H          0.08895   
         H56       1.0000    0.60150   0.75760   0.55010   Biso      1.000     H          0.118902  
         H57       1.0000    0.81110   0.88280   0.72370   Biso      1.000     H          0.131012  
         H58       1.0000    0.62320   0.87580   0.49620   Biso      1.000     H          0.093484  
         H59       1.0000    0.81900   0.00390   0.66750   Biso      1.000     H          0.074641  
         H60       1.0000    0.70910   0.13960   0.38260   Biso      1.000     H          0.085813  
         H61       1.0000    0.67760   0.26240   0.33070   Biso      1.000     H          0.139586  
         H62       1.0000    0.59900   0.38640   0.52550   Biso      1.000     H          0.131619  
         H63       1.0000    0.62080   0.26300   0.57400   Biso      1.000     H          0.084778  
         H64       1.0000    0.75080   0.38400   0.64010   Biso      1.000     H          0.073448  
         N1        1.0000    0.78220   0.21310   0.83790   Biso      1.000     N          -0.252065           
         N2        1.0000    0.32980   0.81030   0.52020   Biso      1.000     N          -0.25495  
         N3        1.0000    0.35850   0.58120   0.61310   Biso      1.000     N          -0.194022           
         N4        1.0000    0.81050   0.93890   0.23940   Biso      1.000     N          -0.251963           
         N5        1.0000    0.82030   0.16510   0.14200   Biso      1.000     N          -0.184546           
         N6        1.0000    0.29060   0.26810   0.31860   Biso      1.000     N          -0.197689           
         N7        1.0000    0.68950   0.43890   0.73940   Biso      1.000     N          -0.251967           
         N8        1.0000    0.77390   0.45290   0.07610   Biso      1.000     N          -0.266616           
         N9        1.0000    0.79060   0.23190   0.18140   Biso      1.000     N          -0.19763  
         N10       1.0000    0.82980   0.68970   0.97980   Biso      1.000     N          -0.254951           
         N11       1.0000    0.85850   0.91880   0.88690   Biso      1.000     N          -0.194024           
         N12       1.0000    0.27390   0.04710   0.42390   Biso      1.000     N          -0.266618           
         N13       1.0000    0.67970   0.66510   0.64200   Biso      1.000     N          -0.18455  
         N14       1.0000    0.84320   0.98510   0.92910   Biso      1.000     N          -0.194062           
         N15       1.0000    0.34320   0.51490   0.57090   Biso      1.000     N          -0.194061           
         N16       1.0000    0.64150   0.41880   0.38690   Biso      1.000     N          -0.194025           
         N17       1.0000    0.32030   0.33490   0.35800   Biso      1.000     N          -0.184498           
         N18       1.0000    0.31050   0.56110   0.26060   Biso      1.000     N          -0.251963           
         N19       1.0000    0.72610   0.95290   0.57610   Biso      1.000     N          -0.266621           
         N20       1.0000    0.70940   0.73190   0.68140   Biso      1.000     N          -0.197634           
         N21       1.0000    0.67020   0.18970   0.47980   Biso      1.000     N          -0.25495  
         N22       1.0000    0.14150   0.08120   0.11310   Biso      1.000     N          -0.194025           
         N23       1.0000    0.18950   0.06110   0.76060   Biso      1.000     N          -0.25196  
         N24       1.0000    0.17970   0.83490   0.85800   Biso      1.000     N          -0.184551           
         N25       1.0000    0.21780   0.78690   0.16210   Biso      1.000     N          -0.252065           
         N26       1.0000    0.15680   0.01490   0.07090   Biso      1.000     N          -0.194063           
         N27       1.0000    0.22610   0.54710   0.92390   Biso      1.000     N          -0.266615           
         N28       1.0000    0.20940   0.76810   0.81860   Biso      1.000     N          -0.197636           
         N29       1.0000    0.71780   0.71310   0.33790   Biso      1.000     N          -0.252066           
         N30       1.0000    0.17020   0.31030   0.02020   Biso      1.000     N          -0.254951           
         N31       1.0000    0.28220   0.28690   0.66210   Biso      1.000     N          -0.252064           
         N32       1.0000    0.65680   0.48510   0.42910   Biso      1.000     N          -0.194063           
         O1        1.0000    0.81110   0.40100   0.87750   Biso      1.000     O          -0.665018           
         O2        1.0000    0.52960   0.98300   0.31780   Biso      1.000     O          -0.659248           
         O3        1.0000    0.18890   0.59900   0.12250   Biso      1.000     O          -0.665012           
         O4        1.0000    0.95780   0.60660   0.09480   Biso      1.000     O          -0.673817           
         O5        1.0000    0.04220   0.39340   0.90520   Biso      1.000     O          -0.673818           
         O6        1.0000    0.47040   0.01700   0.68220   Biso      1.000     O          -0.659247           
         O7        1.0000    0.41950   0.97800   0.55950   Biso      1.000     O          -0.651357           
         O8        1.0000    0.54220   0.10660   0.59480   Biso      1.000     O          -0.673817           
         O9        1.0000    0.31110   0.09900   0.62250   Biso      1.000     O          -0.665016           
         O10       1.0000    0.02960   0.51700   0.18220   Biso      1.000     O          -0.659247           
         O11       1.0000    0.08050   0.47800   0.05950   Biso      1.000     O          -0.651358           
         O12       1.0000    0.58050   0.02200   0.44050   Biso      1.000     O          -0.651358           
         O13       1.0000    0.45780   0.89340   0.40520   Biso      1.000     O          -0.673817           
         O14       1.0000    0.97040   0.48300   0.81780   Biso      1.000     O          -0.659247           
         O15       1.0000    0.91950   0.52200   0.94050   Biso      1.000     O          -0.651358           
         O16       1.0000    0.68890   0.90100   0.37750   Biso      1.000     O          -0.66502  
         S1        1.0000    0.93641   0.45103   0.88435   Biso      1.000     S          1.44885   
         S2        1.0000    0.43641   0.04897   0.61565   Biso      1.000     S          1.448849  
         S3        1.0000    0.06359   0.54897   0.11565   Biso      1.000     S          1.44885   
         S4        1.0000    0.56359   0.95103   0.38435   Biso      1.000     S          1.448849  
         Zn1       1.0000    0.19735   0.42974   0.97341   Biso      1.000     Zn          0.773532  
         Zn2       1.0000    0.72917   0.32780   0.79273   Biso      1.000     Zn          0.598329  
         Zn3       1.0000    0.69735   0.07026   0.52659   Biso      1.000     Zn          0.773533  
         Zn4       1.0000    0.22917   0.17220   0.70727   Biso      1.000     Zn          0.598321  
         Zn5       1.0000    0.80265   0.57026   0.02659   Biso      1.000     Zn          0.77353   
         Zn6       1.0000    0.27083   0.67220   0.20727   Biso      1.000     Zn          0.598316  
         Zn7       1.0000    0.30265   0.92974   0.47341   Biso      1.000     Zn          0.77353   
         Zn8       1.0000    0.77083   0.82780   0.29273   Biso      1.000     Zn          0.598332 