
##########################################################################
#               Crystallographic Information Format file
#               Produced by PyCifRW module
#
#  This is a CIF file.  CIF has been adopted by the International
#  Union of Crystallography as the standard for data archiving and
#  transmission.
#
#  For information on this file format, follow the CIF links at
#  http://www.iucr.org
##########################################################################

data_image0

_cell_length_a                          5.022
_cell_length_b                          12.34
_cell_length_c                          15.4389
_cell_angle_alpha                       90
_cell_angle_beta                        91.867
_cell_angle_gamma                       90
_symmetry_space_group_name_H-M          'P 1'
_symmetry_int_tables_number             1
loop_
  _symmetry_equiv_pos_as_xyz
         'x, y, z' 
loop_
  _atom_site_label
  _atom_site_occupancy
  _atom_site_fract_x
  _atom_site_fract_y
  _atom_site_fract_z
  _atom_site_thermal_displace_type
  _atom_site_B_iso_or_equiv
  _atom_site_type_symbol
  _atom_site_charge
         C1        1.0000    0.42620   0.68350   0.71410   Biso      1.000     C          0.684948  
         C2        1.0000    0.92620   0.81650   0.21410   Biso      1.000     C          0.684961  
         C3        1.0000    0.06960   0.74840   0.28220   Biso      1.000     C          -0.282963           
         C4        1.0000    0.91550   0.73000   0.36410   Biso      1.000     C          -0.449168           
         C5        1.0000    0.57380   0.31650   0.28590   Biso      1.000     C          0.684953  
         C6        1.0000    0.43040   0.24840   0.21780   Biso      1.000     C          -0.282966           
         C7        1.0000    0.58450   0.23000   0.13590   Biso      1.000     C          -0.449164           
         C8        1.0000    0.07380   0.18350   0.78590   Biso      1.000     C          0.684963  
         C9        1.0000    0.93040   0.25160   0.71780   Biso      1.000     C          -0.282967           
         C10       1.0000    0.08450   0.27000   0.63590   Biso      1.000     C          -0.449171           
         C11       1.0000    0.56960   0.75160   0.78220   Biso      1.000     C          -0.282964           
         C12       1.0000    0.41550   0.77000   0.86410   Biso      1.000     C          -0.449166           
         Cu1       1.0000    0.52910   0.13530   0.88280   Biso      1.000     Cu          0.981924  
         Cu2       1.0000    0.02910   0.36470   0.38280   Biso      1.000     Cu          0.981905  
         Cu3       1.0000    0.97090   0.63530   0.61720   Biso      1.000     Cu          0.981901  
         Cu4       1.0000    0.47090   0.86470   0.11720   Biso      1.000     Cu          0.981925  
         Cu5       1.0000    0.00000   0.00000   0.00000   Biso      1.000     Cu          1.12087   
         Cu6       1.0000    0.50000   0.50000   0.50000   Biso      1.000     Cu          1.120864  
         H1        1.0000    0.73900   0.71800   0.79100   Biso      1.000     H          0.142799  
         H2        1.0000    0.43700   0.70600   0.90300   Biso      1.000     H          0.167825  
         H3        1.0000    0.24200   0.77700   0.84800   Biso      1.000     H          0.173472  
         H4        1.0000    0.10600   0.67900   0.25400   Biso      1.000     H          0.148878  
         H5        1.0000    0.23900   0.78200   0.29100   Biso      1.000     H          0.142803  
         H6        1.0000    0.60600   0.82100   0.75400   Biso      1.000     H          0.148876  
         H7        1.0000    0.93700   0.79400   0.40300   Biso      1.000     H          0.167823  
         H8        1.0000    0.74200   0.72300   0.34800   Biso      1.000     H          0.173473  
         H9        1.0000    0.06300   0.20600   0.59700   Biso      1.000     H          0.167827  
         H10       1.0000    0.25800   0.27700   0.65200   Biso      1.000     H          0.173474  
         H11       1.0000    0.76100   0.21800   0.70900   Biso      1.000     H          0.142804  
         H12       1.0000    0.56300   0.29400   0.09700   Biso      1.000     H          0.167829  
         H13       1.0000    0.89400   0.32100   0.74600   Biso      1.000     H          0.148879  
         H14       1.0000    0.75800   0.22300   0.15200   Biso      1.000     H          0.173471  
         H15       1.0000    0.26100   0.28200   0.20900   Biso      1.000     H          0.142801  
         H16       1.0000    0.39400   0.17900   0.24600   Biso      1.000     H          0.148881  
         O1        1.0000    0.45060   0.36260   0.34410   Biso      1.000     O          -0.633133           
         O2        1.0000    0.82670   0.31930   0.28150   Biso      1.000     O          -0.547395           
         O3        1.0000    0.18350   0.40230   0.50080   Biso      1.000     O          -0.795503           
         O4        1.0000    0.32670   0.18070   0.78150   Biso      1.000     O          -0.547394           
         O5        1.0000    0.94880   0.51490   0.35750   Biso      1.000     O          -0.727735           
         O6        1.0000    0.55120   0.01490   0.14250   Biso      1.000     O          -0.727739           
         O7        1.0000    0.31650   0.90230   0.99920   Biso      1.000     O          -0.795505           
         O8        1.0000    0.21000   0.11710   0.04650   Biso      1.000     O          -0.771509           
         O9        1.0000    0.95060   0.13740   0.84410   Biso      1.000     O          -0.633137           
         O10       1.0000    0.29000   0.61710   0.45350   Biso      1.000     O          -0.771503           
         O11       1.0000    0.05120   0.48510   0.64250   Biso      1.000     O          -0.727733           
         O12       1.0000    0.44880   0.98510   0.85750   Biso      1.000     O          -0.727736           
         O13       1.0000    0.71000   0.38290   0.54650   Biso      1.000     O          -0.771504           
         O14       1.0000    0.54940   0.63740   0.65590   Biso      1.000     O          -0.633133           
         O15       1.0000    0.17330   0.68070   0.71850   Biso      1.000     O          -0.547394           
         O16       1.0000    0.68350   0.09770   0.00080   Biso      1.000     O          -0.795507           
         O17       1.0000    0.79000   0.88290   0.95350   Biso      1.000     O          -0.771505           
         O18       1.0000    0.67330   0.81930   0.21850   Biso      1.000     O          -0.547394           
         O19       1.0000    0.81650   0.59770   0.49920   Biso      1.000     O          -0.7955   
         O20       1.0000    0.04940   0.86260   0.15590   Biso      1.000     O          -0.633135           
         P1        1.0000    0.50080   0.89230   0.92010   Biso      1.000     P          1.347126  
         P2        1.0000    0.99920   0.39230   0.57990   Biso      1.000     P          1.347123  
         P3        1.0000    0.49920   0.10770   0.07990   Biso      1.000     P          1.347127  
         P4        1.0000    0.00080   0.60770   0.42010   Biso      1.000     P          1.34712 