
##########################################################################
#               Crystallographic Information Format file
#               Produced by PyCifRW module
#
#  This is a CIF file.  CIF has been adopted by the International
#  Union of Crystallography as the standard for data archiving and
#  transmission.
#
#  For information on this file format, follow the CIF links at
#  http://www.iucr.org
##########################################################################

data_image0

_cell_length_a                          10.5382
_cell_length_b                          17.668
_cell_length_c                          20.005
_cell_angle_alpha                       90
_cell_angle_beta                        90
_cell_angle_gamma                       91.205
_symmetry_space_group_name_H-M          'P 1'
_symmetry_int_tables_number             1
loop_
  _symmetry_equiv_pos_as_xyz
         'x, y, z' 
loop_
  _atom_site_label
  _atom_site_occupancy
  _atom_site_fract_x
  _atom_site_fract_y
  _atom_site_fract_z
  _atom_site_thermal_displace_type
  _atom_site_B_iso_or_equiv
  _atom_site_type_symbol
  _atom_site_charge
         C1        1.0000    0.52070   0.87660   0.53150   Biso      1.000     C          0.71177   
         C2        1.0000    0.04720   0.67930   0.84390   Biso      1.000     C          -0.030151           
         C3        1.0000    0.14170   0.76780   0.92210   Biso      1.000     C          -0.08701  
         C4        1.0000    0.02070   0.87660   0.96850   Biso      1.000     C          0.71177   
         C5        1.0000    0.15090   0.70450   0.88150   Biso      1.000     C          -0.091636           
         C6        1.0000    0.93240   0.71640   0.85030   Biso      1.000     C          -0.082763           
         C7        1.0000    0.05950   0.61390   0.79640   Biso      1.000     C          0.710639  
         C8        1.0000    0.91620   0.61540   0.29530   Biso      1.000     C          0.692751  
         C9        1.0000    0.93930   0.68980   0.33050   Biso      1.000     C          -0.036139           
         C10       1.0000    0.06240   0.71510   0.34370   Biso      1.000     C          -0.111028           
         C11       1.0000    0.08310   0.78120   0.38010   Biso      1.000     C          -0.08896699999999999          
         C12       1.0000    0.98060   0.82260   0.40320   Biso      1.000     C          -0.031659           
         C13       1.0000    0.85900   0.79840   0.38790   Biso      1.000     C          -0.10169  
         C14       1.0000    0.83730   0.73170   0.35220   Biso      1.000     C          -0.086073           
         C15       1.0000    0.92220   0.77920   0.89170   Biso      1.000     C          -0.099552           
         C16       1.0000    0.00580   0.89310   0.44400   Biso      1.000     C          0.715137  
         C17       1.0000    0.56760   0.28360   0.35030   Biso      1.000     C          -0.082764           
         C18       1.0000    0.34910   0.29550   0.38150   Biso      1.000     C          -0.091638           
         C19       1.0000    0.47930   0.12340   0.46850   Biso      1.000     C          0.71177   
         C20       1.0000    0.35830   0.23220   0.42210   Biso      1.000     C          -0.08701  
         C21       1.0000    0.45280   0.32070   0.34390   Biso      1.000     C          -0.030149000000000002         
         C22       1.0000    0.57780   0.22080   0.39170   Biso      1.000     C          -0.099552           
         C23       1.0000    0.47100   0.19430   0.42730   Biso      1.000     C          -0.038196           
         C24       1.0000    0.58380   0.38460   0.79530   Biso      1.000     C          0.692751  
         C25       1.0000    0.56070   0.31020   0.83050   Biso      1.000     C          -0.036139           
         C26       1.0000    0.43760   0.28490   0.84370   Biso      1.000     C          -0.111028           
         C27       1.0000    0.41690   0.21880   0.88010   Biso      1.000     C          -0.08896699999999999          
         C28       1.0000    0.51940   0.17740   0.90320   Biso      1.000     C          -0.031659           
         C29       1.0000    0.64100   0.20160   0.88790   Biso      1.000     C          -0.10169  
         C30       1.0000    0.44050   0.38610   0.29640   Biso      1.000     C          0.710639  
         C31       1.0000    0.02900   0.80570   0.92730   Biso      1.000     C          -0.038196           
         C32       1.0000    0.08380   0.38460   0.70470   Biso      1.000     C          0.692751  
         C33       1.0000    0.06070   0.31020   0.66950   Biso      1.000     C          -0.036139           
         C34       1.0000    0.97100   0.19430   0.07270   Biso      1.000     C          -0.038202           
         C35       1.0000    0.07780   0.22080   0.10830   Biso      1.000     C          -0.099551           
         C36       1.0000    0.95280   0.32070   0.15610   Biso      1.000     C          -0.030151           
         C37       1.0000    0.85830   0.23220   0.07790   Biso      1.000     C          -0.087005           
         C38       1.0000    0.97930   0.12340   0.03150   Biso      1.000     C          0.711771  
         C39       1.0000    0.84910   0.29550   0.11850   Biso      1.000     C          -0.091637           
         C40       1.0000    0.06760   0.28360   0.14970   Biso      1.000     C          -0.082763           
         C41       1.0000    0.94050   0.38610   0.20360   Biso      1.000     C          0.710639  
         C42       1.0000    0.50580   0.89310   0.05600   Biso      1.000     C          0.715138  
         C43       1.0000    0.33730   0.73170   0.14780   Biso      1.000     C          -0.086075           
         C44       1.0000    0.35900   0.79840   0.11210   Biso      1.000     C          -0.10169299999999999          
         C45       1.0000    0.48060   0.82260   0.09680   Biso      1.000     C          -0.031656000000000004         
         C46       1.0000    0.58310   0.78120   0.11990   Biso      1.000     C          -0.08896799999999999          
         C47       1.0000    0.56240   0.71510   0.15630   Biso      1.000     C          -0.111029           
         C48       1.0000    0.43930   0.68980   0.16950   Biso      1.000     C          -0.036136           
         C49       1.0000    0.41620   0.61540   0.20470   Biso      1.000     C          0.69275   
         C50       1.0000    0.52900   0.80570   0.57270   Biso      1.000     C          -0.038202           
         C51       1.0000    0.42220   0.77920   0.60830   Biso      1.000     C          -0.099551           
         C52       1.0000    0.54720   0.67930   0.65610   Biso      1.000     C          -0.030151           
         C53       1.0000    0.64170   0.76780   0.57790   Biso      1.000     C          -0.087005           
         C54       1.0000    0.65090   0.70450   0.61850   Biso      1.000     C          -0.091637           
         C55       1.0000    0.43240   0.71640   0.64970   Biso      1.000     C          -0.082763           
         C56       1.0000    0.55950   0.61390   0.70360   Biso      1.000     C          0.710639  
         C57       1.0000    0.99420   0.10690   0.55600   Biso      1.000     C          0.715137  
         C58       1.0000    0.16270   0.26830   0.64780   Biso      1.000     C          -0.086073           
         C59       1.0000    0.14100   0.20160   0.61210   Biso      1.000     C          -0.10169299999999999          
         C60       1.0000    0.01940   0.17740   0.59680   Biso      1.000     C          -0.031656000000000004         
         C61       1.0000    0.91690   0.21880   0.61990   Biso      1.000     C          -0.08896799999999999          
         C62       1.0000    0.93760   0.28490   0.65630   Biso      1.000     C          -0.111027           
         C63       1.0000    0.66270   0.26830   0.85220   Biso      1.000     C          -0.086074           
         C64       1.0000    0.49420   0.10690   0.94400   Biso      1.000     C          0.715137  
         Gd1       1.0000    0.17790   0.50013   0.26557   Biso      1.000     Gd          2.053583  
         Gd2       1.0000    0.24617   0.00805   0.01810   Biso      1.000     Gd          2.0615650000000003  
         Gd3       1.0000    0.25383   0.99195   0.51810   Biso      1.000     Gd          2.0615650000000003  
         Gd4       1.0000    0.32210   0.49987   0.76557   Biso      1.000     Gd          2.053583  
         Gd5       1.0000    0.82210   0.49987   0.73443   Biso      1.000     Gd          2.053583  
         Gd6       1.0000    0.74617   0.00805   0.48190   Biso      1.000     Gd          2.0615650000000003  
         Gd7       1.0000    0.67790   0.50013   0.23443   Biso      1.000     Gd          2.053583  
         Gd8       1.0000    0.75383   0.99195   0.98190   Biso      1.000     Gd          2.0615650000000003  
         H1        1.0000    0.33270   0.20170   0.88930   Biso      1.000     H          0.127939  
         H2        1.0000    0.36750   0.31280   0.82790   Biso      1.000     H          0.103093  
         H3        1.0000    0.65650   0.19600   0.39590   Biso      1.000     H          0.112044  
         H4        1.0000    0.28620   0.21480   0.44670   Biso      1.000     H          0.121484  
         H5        1.0000    0.27160   0.32190   0.37940   Biso      1.000     H          0.115087  
         H6        1.0000    0.16730   0.79830   0.38930   Biso      1.000     H          0.127939  
         H7        1.0000    0.75300   0.71490   0.34280   Biso      1.000     H          0.127996  
         H8        1.0000    0.78900   0.82760   0.40190   Biso      1.000     H          0.108339  
         H9        1.0000    0.71100   0.17240   0.90190   Biso      1.000     H          0.108339  
         H10       1.0000    0.13250   0.68720   0.32790   Biso      1.000     H          0.103093  
         H11       1.0000    0.15650   0.19600   0.10410   Biso      1.000     H          0.112044  
         H12       1.0000    0.63970   0.30150   0.32610   Biso      1.000     H          0.125181  
         H13       1.0000    0.74700   0.28510   0.84280   Biso      1.000     H          0.127996  
         H14       1.0000    0.78620   0.21480   0.05330   Biso      1.000     H          0.121484  
         H15       1.0000    0.77160   0.32190   0.12060   Biso      1.000     H          0.115086  
         H16       1.0000    0.13970   0.30150   0.17390   Biso      1.000     H          0.125181  
         H17       1.0000    0.25300   0.71490   0.15720   Biso      1.000     H          0.127996  
         H18       1.0000    0.86030   0.69850   0.82610   Biso      1.000     H          0.125181  
         H19       1.0000    0.28900   0.82760   0.09810   Biso      1.000     H          0.108339  
         H20       1.0000    0.66730   0.79830   0.11070   Biso      1.000     H          0.127939  
         H21       1.0000    0.63250   0.68720   0.17210   Biso      1.000     H          0.103093  
         H22       1.0000    0.34350   0.80400   0.60410   Biso      1.000     H          0.112044  
         H23       1.0000    0.72840   0.67810   0.62060   Biso      1.000     H          0.115086  
         H24       1.0000    0.71380   0.78520   0.55330   Biso      1.000     H          0.121484  
         H25       1.0000    0.24700   0.28510   0.65720   Biso      1.000     H          0.127996  
         H26       1.0000    0.21100   0.17240   0.59810   Biso      1.000     H          0.108339  
         H27       1.0000    0.83270   0.20170   0.61070   Biso      1.000     H          0.127939  
         H28       1.0000    0.86750   0.31280   0.67210   Biso      1.000     H          0.103093  
         H29       1.0000    0.84350   0.80400   0.89590   Biso      1.000     H          0.112044  
         H30       1.0000    0.21380   0.78520   0.94670   Biso      1.000     H          0.121484  
         H31       1.0000    0.22840   0.67810   0.87940   Biso      1.000     H          0.115086  
         H32       1.0000    0.36030   0.69850   0.67390   Biso      1.000     H          0.125181  
         N1        1.0000    0.73790   0.97510   0.62510   Biso      1.000     N          0.766628  
         N2        1.0000    0.76210   0.02490   0.12510   Biso      1.000     N          0.766628  
         N3        1.0000    0.68740   0.47540   0.37920   Biso      1.000     N          0.757771  
         N4        1.0000    0.81260   0.52460   0.87920   Biso      1.000     N          0.757771  
         N5        1.0000    0.26210   0.02490   0.37490   Biso      1.000     N          0.766628  
         N6        1.0000    0.31260   0.52460   0.62080   Biso      1.000     N          0.757771  
         N7        1.0000    0.18740   0.47540   0.12080   Biso      1.000     N          0.757771  
         N8        1.0000    0.23790   0.97510   0.87490   Biso      1.000     N          0.766628  
         O1        1.0000    0.61970   0.89998   0.50339   Biso      1.000     O          -0.6901109999999999           
         O2        1.0000    0.88470   0.09684   0.53301   Biso      1.000     O          -0.677212           
         O3        1.0000    0.66300   0.02200   0.59848   Biso      1.000     O          -0.555859           
         O4        1.0000    0.82150   0.94820   0.58819   Biso      1.000     O          -0.523872           
         O5        1.0000    0.41590   0.90862   0.52883   Biso      1.000     O          -0.723445           
         O6        1.0000    0.41580   0.93644   0.04729   Biso      1.000     O          -0.714975           
         O7        1.0000    0.66070   0.57898   0.70285   Biso      1.000     O          -0.70163  
         O8        1.0000    0.46640   0.59964   0.74219   Biso      1.000     O          -0.6986479999999999           
         O9        1.0000    0.74130   0.55887   0.83839   Biso      1.000     O          -0.548098           
         O10       1.0000    0.08420   0.06356   0.54729   Biso      1.000     O          -0.714975           
         O11       1.0000    0.89710   0.48430   0.85442   Biso      1.000     O          -0.51476  
         O12       1.0000    0.19670   0.40619   0.71137   Biso      1.000     O          -0.66538  
         O13       1.0000    0.79690   0.53010   0.93990   Biso      1.000     O          -0.398065           
         O14       1.0000    0.08410   0.09138   0.02883   Biso      1.000     O          -0.723445           
         O15       1.0000    0.51060   0.58001   0.22466   Biso      1.000     O          -0.722214           
         O16       1.0000    0.60290   0.51570   0.35442   Biso      1.000     O          -0.51476  
         O17       1.0000    0.75870   0.44113   0.33839   Biso      1.000     O          -0.548098           
         O18       1.0000    0.03360   0.40036   0.24219   Biso      1.000     O          -0.6986479999999999           
         O19       1.0000    0.83930   0.42102   0.20285   Biso      1.000     O          -0.70163  
         O20       1.0000    0.30330   0.59381   0.21137   Biso      1.000     O          -0.66538  
         O21       1.0000    0.61530   0.90316   0.03301   Biso      1.000     O          -0.677212           
         O22       1.0000    0.67850   0.05180   0.08819   Biso      1.000     O          -0.523872           
         O23       1.0000    0.83700   0.97800   0.09848   Biso      1.000     O          -0.555859           
         O24       1.0000    0.88030   0.10002   0.00339   Biso      1.000     O          -0.6901109999999999           
         O25       1.0000    0.98940   0.41999   0.72466   Biso      1.000     O          -0.722214           
         O26       1.0000    0.72950   0.95830   0.68370   Biso      1.000     O          -0.391871           
         O27       1.0000    0.22950   0.95830   0.81630   Biso      1.000     O          -0.39187  
         O28       1.0000    0.33930   0.42102   0.29715   Biso      1.000     O          -0.70163  
         O29       1.0000    0.58420   0.06356   0.95271   Biso      1.000     O          -0.7149760000000001           
         O30       1.0000    0.70310   0.46990   0.43990   Biso      1.000     O          -0.398065           
         O31       1.0000    0.01060   0.58001   0.27534   Biso      1.000     O          -0.722214           
         O32       1.0000    0.10290   0.51570   0.14558   Biso      1.000     O          -0.51476  
         O33       1.0000    0.25870   0.44113   0.16161   Biso      1.000     O          -0.548098           
         O34       1.0000    0.53360   0.40036   0.25781   Biso      1.000     O          -0.6986479999999999           
         O35       1.0000    0.80330   0.59381   0.28863   Biso      1.000     O          -0.66538  
         O36       1.0000    0.11530   0.90316   0.46699   Biso      1.000     O          -0.677212           
         O37       1.0000    0.17850   0.05180   0.41181   Biso      1.000     O          -0.523872           
         O38       1.0000    0.33700   0.97800   0.40152   Biso      1.000     O          -0.555859           
         O39       1.0000    0.38030   0.10002   0.49661   Biso      1.000     O          -0.6901109999999999           
         O40       1.0000    0.58410   0.09138   0.47117   Biso      1.000     O          -0.723445           
         O41       1.0000    0.91580   0.93644   0.45271   Biso      1.000     O          -0.714975           
         O42       1.0000    0.20310   0.46990   0.06010   Biso      1.000     O          -0.398065           
         O43       1.0000    0.27050   0.04170   0.31630   Biso      1.000     O          -0.39187  
         O44       1.0000    0.48940   0.41999   0.77534   Biso      1.000     O          -0.722214           
         O45       1.0000    0.39710   0.48430   0.64558   Biso      1.000     O          -0.51476  
         O46       1.0000    0.24130   0.55887   0.66161   Biso      1.000     O          -0.548098           
         O47       1.0000    0.96640   0.59964   0.75781   Biso      1.000     O          -0.6986479999999999           
         O48       1.0000    0.16070   0.57898   0.79715   Biso      1.000     O          -0.70163  
         O49       1.0000    0.69670   0.40619   0.78863   Biso      1.000     O          -0.66538  
         O50       1.0000    0.38470   0.09684   0.96699   Biso      1.000     O          -0.677212           
         O51       1.0000    0.32150   0.94820   0.91181   Biso      1.000     O          -0.523872           
         O52       1.0000    0.16300   0.02200   0.90152   Biso      1.000     O          -0.555859           
         O53       1.0000    0.11970   0.89998   0.99661   Biso      1.000     O          -0.6901109999999999           
         O54       1.0000    0.91590   0.90862   0.97117   Biso      1.000     O          -0.723445           
         O55       1.0000    0.29690   0.53010   0.56010   Biso      1.000     O          -0.398065           
         O56       1.0000    0.77050   0.04170   0.18370   Biso      1.000     O          -0.391871 