
##########################################################################
#               Crystallographic Information Format file
#               Produced by PyCifRW module
#
#  This is a CIF file.  CIF has been adopted by the International
#  Union of Crystallography as the standard for data archiving and
#  transmission.
#
#  For information on this file format, follow the CIF links at
#  http://www.iucr.org
##########################################################################

data_image0

_cell_length_a                          6.026
_cell_length_b                          7.45
_cell_length_c                          13.287
_cell_angle_alpha                       102.74
_cell_angle_beta                        101.46
_cell_angle_gamma                       90.72
_symmetry_space_group_name_H-M          'P 1'
_symmetry_int_tables_number             1
loop_
  _symmetry_equiv_pos_as_xyz
         'x, y, z' 
loop_
  _atom_site_label
  _atom_site_occupancy
  _atom_site_fract_x
  _atom_site_fract_y
  _atom_site_fract_z
  _atom_site_thermal_displace_type
  _atom_site_B_iso_or_equiv
  _atom_site_type_symbol
  _atom_site_charge
         C1        1.0000    0.97110   0.68820   0.15640   Biso      1.000     C          0.623479  
         C2        1.0000    0.63420   0.85960   0.38690   Biso      1.000     C          0.611406  
         C3        1.0000    0.82010   0.00130   0.38660   Biso      1.000     C          0.052627  
         C4        1.0000    0.85020   0.14600   0.49270   Biso      1.000     C          0.05005   
         C5        1.0000    0.98790   0.31770   0.49050   Biso      1.000     C          0.63171   
         C6        1.0000    0.10010   0.51030   0.14880   Biso      1.000     C          0.038925  
         C7        1.0000    0.13680   0.43940   0.25320   Biso      1.000     C          0.052453  
         C8        1.0000    0.32510   0.30260   0.24940   Biso      1.000     C          0.63374   
         C9        1.0000    0.26840   0.75540   0.92110   Biso      1.000     C          0.576645  
         C10       1.0000    0.11040   0.65960   0.81730   Biso      1.000     C          0.059848  
         C11       1.0000    0.86250   0.66630   0.83130   Biso      1.000     C          0.07191399999999999           
         C12       1.0000    0.70800   0.61200   0.72340   Biso      1.000     C          0.5872229999999999  
         Gd1       1.0000    0.50009   0.50994   0.50002   Biso      1.000     Gd          1.978836  
         Gd2       1.0000    0.46433   0.87269   0.14001   Biso      1.000     Gd          1.9894060000000002  
         H1        1.0000    0.70000   0.16800   0.31700   Biso      1.000     H          0.386251  
         H2        1.0000    0.59000   0.16500   0.56100   Biso      1.000     H          0.43716499999999997           
         H3        1.0000    0.83620   0.79390   0.86320   Biso      1.000     H          0.085711  
         H4        1.0000    0.99640   0.37410   0.25560   Biso      1.000     H          0.113785  
         H5        1.0000    0.01440   0.41430   0.09090   Biso      1.000     H          0.118719  
         H6        1.0000    0.12680   0.72720   0.76350   Biso      1.000     H          0.080304  
         H7        1.0000    0.96190   0.93890   0.38470   Biso      1.000     H          0.11524000000000001           
         H8        1.0000    0.78740   0.61910   0.95170   Biso      1.000     H          0.377824  
         H9        1.0000    0.24780   0.46900   0.74190   Biso      1.000     H          0.37704499999999996           
         H10       1.0000    0.28400   0.66000   0.33300   Biso      1.000     H          0.378444  
         H11       1.0000    0.32000   0.46500   0.07300   Biso      1.000     H          0.436911  
         H12       1.0000    0.92720   0.09180   0.55020   Biso      1.000     H          0.125451  
         O1        1.0000    0.76320   0.07270   0.29600   Biso      1.000     O          -0.5815939999999999           
         O2        1.0000    0.31540   0.54640   0.12630   Biso      1.000     O          -0.5763729999999999           
         O3        1.0000    0.63210   0.20260   0.51160   Biso      1.000     O          -0.596246           
         O4        1.0000    0.19420   0.29880   0.48910   Biso      1.000     O          -0.6514770000000001           
         O5        1.0000    0.88940   0.46130   0.49260   Biso      1.000     O          -0.59525  
         O6        1.0000    0.76630   0.67710   0.16210   Biso      1.000     O          -0.627958           
         O7        1.0000    0.07780   0.82990   0.15030   Biso      1.000     O          -0.619595           
         O8        1.0000    0.19650   0.58630   0.34610   Biso      1.000     O          -0.5892270000000001           
         O9        1.0000    0.83240   0.55630   0.90160   Biso      1.000     O          -0.5205850000000001           
         O10       1.0000    0.30010   0.16560   0.17470   Biso      1.000     O          -0.609599           
         O11       1.0000    0.22590   0.91000   0.96880   Biso      1.000     O          -0.63707  
         O12       1.0000    0.43700   0.67390   0.95980   Biso      1.000     O          -0.659168           
         O13       1.0000    0.15660   0.47410   0.78060   Biso      1.000     O          -0.520663           
         O14       1.0000    0.73130   0.70890   0.66030   Biso      1.000     O          -0.652144           
         O15       1.0000    0.55980   0.47740   0.69850   Biso      1.000     O          -0.648035           
         O16       1.0000    0.46140   0.83390   0.31230   Biso      1.000     O          -0.626296           
         O17       1.0000    0.49330   0.34150   0.32680   Biso      1.000     O          -0.656296           
         O18       1.0000    0.66330   0.77220   0.46110   Biso      1.000     O          -0.623532 