
##########################################################################
#               Crystallographic Information Format file
#               Produced by PyCifRW module
#
#  This is a CIF file.  CIF has been adopted by the International
#  Union of Crystallography as the standard for data archiving and
#  transmission.
#
#  For information on this file format, follow the CIF links at
#  http://www.iucr.org
##########################################################################

data_image0

_cell_length_a                          7.3361
_cell_length_b                          10.7496
_cell_length_c                          14.028
_cell_angle_alpha                       90
_cell_angle_beta                        90.778
_cell_angle_gamma                       90
_symmetry_space_group_name_H-M          'P 1'
_symmetry_int_tables_number             1
loop_
  _symmetry_equiv_pos_as_xyz
         'x, y, z' 
loop_
  _atom_site_label
  _atom_site_occupancy
  _atom_site_fract_x
  _atom_site_fract_y
  _atom_site_fract_z
  _atom_site_thermal_displace_type
  _atom_site_B_iso_or_equiv
  _atom_site_type_symbol
  _atom_site_charge
         C1        1.0000    0.43210   0.32600   0.26900   Biso      1.000     C          0.031989  
         C2        1.0000    0.40630   0.08650   0.84060   Biso      1.000     C          -0.052608           
         C3        1.0000    0.43210   0.17400   0.76900   Biso      1.000     C          0.031983  
         C4        1.0000    0.27580   0.25380   0.73330   Biso      1.000     C          0.561     
         C5        1.0000    0.25000   0.62000   0.72820   Biso      1.000     C          0.107121  
         C6        1.0000    0.77460   0.55910   0.61360   Biso      1.000     C          0.623304  
         C7        1.0000    0.44670   0.51590   0.62860   Biso      1.000     C          0.041327  
         C8        1.0000    0.39180   0.69170   0.76400   Biso      1.000     C          -0.135366           
         C9        1.0000    0.59370   0.58650   0.65940   Biso      1.000     C          -0.052606           
         C10       1.0000    0.56790   0.67400   0.73100   Biso      1.000     C          0.031978  
         C11       1.0000    0.72420   0.75380   0.76670   Biso      1.000     C          0.561002  
         C12       1.0000    0.22540   0.05910   0.88640   Biso      1.000     C          0.623306  
         C13       1.0000    0.75000   0.12000   0.77180   Biso      1.000     C          0.107127  
         C14       1.0000    0.27580   0.24620   0.23330   Biso      1.000     C          0.560994  
         C15       1.0000    0.40630   0.41350   0.34060   Biso      1.000     C          -0.052598           
         C16       1.0000    0.60820   0.30830   0.23600   Biso      1.000     C          -0.135345           
         C17       1.0000    0.55330   0.48410   0.37140   Biso      1.000     C          0.04134   
         C18       1.0000    0.22540   0.44090   0.38640   Biso      1.000     C          0.623298  
         C19       1.0000    0.75000   0.38000   0.27180   Biso      1.000     C          0.107136  
         C20       1.0000    0.72420   0.74620   0.26670   Biso      1.000     C          0.560994  
         C21       1.0000    0.56790   0.82600   0.23100   Biso      1.000     C          0.031988  
         C22       1.0000    0.59370   0.91350   0.15940   Biso      1.000     C          -0.052597           
         C23       1.0000    0.39180   0.80830   0.26400   Biso      1.000     C          -0.135347           
         C24       1.0000    0.44670   0.98410   0.12860   Biso      1.000     C          0.041341  
         C25       1.0000    0.77460   0.94090   0.11360   Biso      1.000     C          0.623298  
         C26       1.0000    0.25000   0.88000   0.22820   Biso      1.000     C          0.107138  
         C27       1.0000    0.60820   0.19170   0.73600   Biso      1.000     C          -0.135366           
         C28       1.0000    0.55330   0.01590   0.87140   Biso      1.000     C          0.041331  
         Cu1       1.0000    0.91107   0.90790   0.88013   Biso      1.000     Cu          0.841335  
         Cu2       1.0000    0.91107   0.59210   0.38013   Biso      1.000     Cu          0.841311  
         Cu3       1.0000    0.08893   0.09210   0.11987   Biso      1.000     Cu          0.841323  
         Cu4       1.0000    0.08893   0.40790   0.61987   Biso      1.000     Cu          0.841329  
         H1        1.0000    0.46560   0.04580   0.08130   Biso      1.000     H          0.111654  
         H2        1.0000    0.36890   0.74700   0.31120   Biso      1.000     H          0.130845  
         H3        1.0000    0.87010   0.36580   0.24960   Biso      1.000     H          0.111455  
         H4        1.0000    0.53440   0.54580   0.41870   Biso      1.000     H          0.111654  
         H5        1.0000    0.63110   0.24700   0.18880   Biso      1.000     H          0.130847  
         H6        1.0000    0.87010   0.13420   0.74960   Biso      1.000     H          0.111451  
         H7        1.0000    0.53440   0.95420   0.91870   Biso      1.000     H          0.111645  
         H8        1.0000    0.63110   0.25300   0.68880   Biso      1.000     H          0.130847  
         H9        1.0000    0.12990   0.63420   0.75040   Biso      1.000     H          0.111451  
         H10       1.0000    0.46560   0.45420   0.58130   Biso      1.000     H          0.111645  
         H11       1.0000    0.36890   0.75300   0.81120   Biso      1.000     H          0.130848  
         H12       1.0000    0.12990   0.86580   0.25040   Biso      1.000     H          0.111455  
         N1        1.0000    0.27780   0.96890   0.16310   Biso      1.000     N          -0.189363           
         N2        1.0000    0.72220   0.46890   0.33690   Biso      1.000     N          -0.189362           
         N3        1.0000    0.27780   0.53110   0.66310   Biso      1.000     N          -0.189364           
         N4        1.0000    0.72220   0.03110   0.83690   Biso      1.000     N          -0.189369           
         O1        1.0000    0.78860   0.92190   0.02762   Biso      1.000     O          -0.580237           
         O2        1.0000    0.73190   0.72960   0.35700   Biso      1.000     O          -0.536422           
         O3        1.0000    0.17120   0.20220   0.29180   Biso      1.000     O          -0.522818           
         O4        1.0000    0.10580   0.48800   0.33103   Biso      1.000     O          -0.543195           
         O5        1.0000    0.21140   0.42190   0.47238   Biso      1.000     O          -0.580235           
         O6        1.0000    0.26810   0.22960   0.14300   Biso      1.000     O          -0.536426           
         O7        1.0000    0.17120   0.29780   0.79180   Biso      1.000     O          -0.522833           
         O8        1.0000    0.10580   0.01200   0.83103   Biso      1.000     O          -0.543198           
         O9        1.0000    0.26810   0.27040   0.64300   Biso      1.000     O          -0.536441           
         O10       1.0000    0.82880   0.79780   0.70820   Biso      1.000     O          -0.522832           
         O11       1.0000    0.89420   0.51200   0.66897   Biso      1.000     O          -0.543197           
         O12       1.0000    0.78860   0.57810   0.52762   Biso      1.000     O          -0.580253           
         O13       1.0000    0.73190   0.77040   0.85700   Biso      1.000     O          -0.536444           
         O14       1.0000    0.89420   0.98800   0.16897   Biso      1.000     O          -0.543196           
         O15       1.0000    0.21140   0.07810   0.97238   Biso      1.000     O          -0.580258           
         O16       1.0000    0.82880   0.70220   0.20820   Biso      1.000     O          -0.522815 