
##########################################################################
#               Crystallographic Information Format file
#               Produced by PyCifRW module
#
#  This is a CIF file.  CIF has been adopted by the International
#  Union of Crystallography as the standard for data archiving and
#  transmission.
#
#  For information on this file format, follow the CIF links at
#  http://www.iucr.org
##########################################################################

data_image0

_cell_length_a                          18.7789
_cell_length_b                          17.827
_cell_length_c                          14.3603
_cell_angle_alpha                       90
_cell_angle_beta                        93.827
_cell_angle_gamma                       90
_symmetry_space_group_name_H-M          'P 1'
_symmetry_int_tables_number             1
loop_
  _symmetry_equiv_pos_as_xyz
         'x, y, z' 
loop_
  _atom_site_label
  _atom_site_occupancy
  _atom_site_fract_x
  _atom_site_fract_y
  _atom_site_fract_z
  _atom_site_thermal_displace_type
  _atom_site_B_iso_or_equiv
  _atom_site_type_symbol
  _atom_site_charge
         C1        1.0000    0.03290   0.50000   0.41670   Biso      1.000     C          -0.064653           
         C2        1.0000    0.95670   0.64600   0.10520   Biso      1.000     C          0.620427  
         C3        1.0000    0.89000   0.75400   0.03310   Biso      1.000     C          -0.104532           
         C4        1.0000    0.83580   0.80710   0.02950   Biso      1.000     C          -0.070971           
         C5        1.0000    0.78920   0.81190   0.09930   Biso      1.000     C          -0.021226           
         C6        1.0000    0.79710   0.76330   0.17330   Biso      1.000     C          -0.128993           
         C7        1.0000    0.85220   0.71120   0.17620   Biso      1.000     C          0.044759  
         C8        1.0000    0.89950   0.70530   0.10670   Biso      1.000     C          -0.03957  
         C9        1.0000    0.61000   0.74600   0.96690   Biso      1.000     C          -0.104532           
         C10       1.0000    0.54330   0.85400   0.89480   Biso      1.000     C          0.620427  
         C11       1.0000    0.72830   0.86670   0.09330   Biso      1.000     C          0.621559  
         C12       1.0000    0.77170   0.63330   0.90670   Biso      1.000     C          0.621559  
         C13       1.0000    0.51630   0.06710   0.45860   Biso      1.000     C          0.021903  
         C14       1.0000    0.45670   0.14600   0.10520   Biso      1.000     C          0.620427  
         C15       1.0000    0.39000   0.25400   0.03310   Biso      1.000     C          -0.104532           
         C16       1.0000    0.33580   0.30710   0.02950   Biso      1.000     C          -0.070971           
         C17       1.0000    0.28920   0.31190   0.09930   Biso      1.000     C          -0.021226           
         C18       1.0000    0.29710   0.26330   0.17330   Biso      1.000     C          -0.128993           
         C19       1.0000    0.35220   0.21120   0.17620   Biso      1.000     C          0.044759  
         C20       1.0000    0.39950   0.20530   0.10670   Biso      1.000     C          -0.03957  
         C21       1.0000    0.10050   0.29470   0.89330   Biso      1.000     C          -0.039576           
         C22       1.0000    0.48370   0.93290   0.54140   Biso      1.000     C          0.021903  
         C23       1.0000    0.01630   0.56710   0.45860   Biso      1.000     C          0.021904  
         C24       1.0000    0.66420   0.69290   0.97050   Biso      1.000     C          -0.070971           
         C25       1.0000    0.71080   0.68810   0.90070   Biso      1.000     C          -0.021226           
         C26       1.0000    0.89000   0.24600   0.03310   Biso      1.000     C          -0.104532           
         C27       1.0000    0.83580   0.19290   0.02950   Biso      1.000     C          -0.070971           
         C28       1.0000    0.78920   0.18810   0.09930   Biso      1.000     C          -0.021226           
         C29       1.0000    0.79710   0.23670   0.17330   Biso      1.000     C          -0.128993           
         C30       1.0000    0.85220   0.28880   0.17620   Biso      1.000     C          0.044759  
         C31       1.0000    0.89950   0.29470   0.10670   Biso      1.000     C          -0.03957  
         C32       1.0000    0.72830   0.13330   0.09330   Biso      1.000     C          0.621559  
         C33       1.0000    0.01630   0.43290   0.45860   Biso      1.000     C          0.021904  
         C34       1.0000    0.51630   0.93290   0.45860   Biso      1.000     C          0.021909  
         C35       1.0000    0.22830   0.63330   0.09330   Biso      1.000     C          0.621559  
         C36       1.0000    0.45670   0.85400   0.10520   Biso      1.000     C          0.620427  
         C37       1.0000    0.39000   0.74600   0.03310   Biso      1.000     C          -0.104532           
         C38       1.0000    0.33580   0.69290   0.02950   Biso      1.000     C          -0.070971           
         C39       1.0000    0.28920   0.68810   0.09930   Biso      1.000     C          -0.021226           
         C40       1.0000    0.29710   0.73670   0.17330   Biso      1.000     C          -0.128993           
         C41       1.0000    0.35220   0.78880   0.17620   Biso      1.000     C          0.044759  
         C42       1.0000    0.39950   0.79470   0.10670   Biso      1.000     C          -0.03957  
         C43       1.0000    0.06400   0.50000   0.32170   Biso      1.000     C          0.624837  
         C44       1.0000    0.60050   0.79470   0.89330   Biso      1.000     C          -0.03957  
         C45       1.0000    0.64780   0.78880   0.82380   Biso      1.000     C          0.044759  
         C46       1.0000    0.70290   0.73670   0.82670   Biso      1.000     C          -0.128994           
         C47       1.0000    0.14780   0.28880   0.82380   Biso      1.000     C          0.04476   
         C48       1.0000    0.20290   0.23670   0.82670   Biso      1.000     C          -0.129002           
         C49       1.0000    0.22830   0.36670   0.09330   Biso      1.000     C          0.621559  
         C50       1.0000    0.27170   0.86670   0.90670   Biso      1.000     C          0.621559  
         C51       1.0000    0.16420   0.19290   0.97050   Biso      1.000     C          -0.070976           
         C52       1.0000    0.11000   0.24600   0.96690   Biso      1.000     C          -0.104522           
         C53       1.0000    0.04330   0.35400   0.89480   Biso      1.000     C          0.620427  
         C54       1.0000    0.27170   0.13330   0.90670   Biso      1.000     C          0.621558  
         C55       1.0000    0.98370   0.43290   0.54140   Biso      1.000     C          0.021909  
         C56       1.0000    0.98370   0.56710   0.54140   Biso      1.000     C          0.021909  
         C57       1.0000    0.48370   0.06710   0.54140   Biso      1.000     C          0.021909  
         C58       1.0000    0.77170   0.36670   0.90670   Biso      1.000     C          0.621559  
         C59       1.0000    0.54330   0.14600   0.89480   Biso      1.000     C          0.620427  
         C60       1.0000    0.61000   0.25400   0.96690   Biso      1.000     C          -0.104532           
         C61       1.0000    0.66420   0.30710   0.97050   Biso      1.000     C          -0.070971           
         C62       1.0000    0.71080   0.31190   0.90070   Biso      1.000     C          -0.021226           
         C63       1.0000    0.70290   0.26330   0.82670   Biso      1.000     C          -0.128993           
         C64       1.0000    0.64780   0.21120   0.82380   Biso      1.000     C          0.044759  
         C65       1.0000    0.60050   0.20530   0.89330   Biso      1.000     C          -0.03957  
         C66       1.0000    0.43600   0.00000   0.67830   Biso      1.000     C          0.624836  
         C67       1.0000    0.46710   0.00000   0.58330   Biso      1.000     C          -0.064652           
         C68       1.0000    0.93600   0.50000   0.67830   Biso      1.000     C          0.624836  
         C69       1.0000    0.96710   0.50000   0.58330   Biso      1.000     C          -0.064653           
         C70       1.0000    0.56400   0.00000   0.32170   Biso      1.000     C          0.624836  
         C71       1.0000    0.53290   0.00000   0.41670   Biso      1.000     C          -0.064652           
         C72       1.0000    0.21080   0.18810   0.90070   Biso      1.000     C          -0.021218           
         C73       1.0000    0.10050   0.70530   0.89330   Biso      1.000     C          -0.039576           
         C74       1.0000    0.95670   0.35400   0.10520   Biso      1.000     C          0.620427  
         C75       1.0000    0.04330   0.64600   0.89480   Biso      1.000     C          0.620427  
         C76       1.0000    0.20290   0.76330   0.82670   Biso      1.000     C          -0.129002           
         C77       1.0000    0.21080   0.81190   0.90070   Biso      1.000     C          -0.021218           
         C78       1.0000    0.16420   0.80710   0.97050   Biso      1.000     C          -0.070976           
         C79       1.0000    0.11000   0.75400   0.96690   Biso      1.000     C          -0.104522           
         C80       1.0000    0.14780   0.71120   0.82380   Biso      1.000     C          0.04476   
         H1        1.0000    0.16910   0.84070   0.02190   Biso      1.000     H          0.126433  
         H2        1.0000    0.33090   0.34070   0.97810   Biso      1.000     H          0.126433  
         H3        1.0000    0.26520   0.26520   0.22190   Biso      1.000     H          0.150362  
         H4        1.0000    0.42100   0.74870   0.98350   Biso      1.000     H          0.127074  
         H5        1.0000    0.23480   0.76520   0.77810   Biso      1.000     H          0.150362  
         H6        1.0000    0.57900   0.25130   0.01650   Biso      1.000     H          0.127074  
         H7        1.0000    0.33090   0.65930   0.97810   Biso      1.000     H          0.126433  
         H8        1.0000    0.76520   0.23480   0.22190   Biso      1.000     H          0.150362  
         H9        1.0000    0.66910   0.34070   0.02190   Biso      1.000     H          0.126433  
         H10       1.0000    0.26520   0.73480   0.22190   Biso      1.000     H          0.150362  
         H11       1.0000    0.73480   0.73480   0.77810   Biso      1.000     H          0.150362  
         H12       1.0000    0.92100   0.75130   0.98350   Biso      1.000     H          0.127074  
         H13       1.0000    0.42100   0.25130   0.98350   Biso      1.000     H          0.127074  
         H14       1.0000    0.83090   0.84070   0.97810   Biso      1.000     H          0.126433  
         H15       1.0000    0.83090   0.15930   0.97810   Biso      1.000     H          0.126433  
         H16       1.0000    0.57900   0.74870   0.01650   Biso      1.000     H          0.127074  
         H17       1.0000    0.07900   0.75130   0.01650   Biso      1.000     H          0.127074  
         H18       1.0000    0.66910   0.65930   0.02190   Biso      1.000     H          0.126433  
         H19       1.0000    0.23480   0.23480   0.77810   Biso      1.000     H          0.150362  
         H20       1.0000    0.92100   0.24870   0.98350   Biso      1.000     H          0.127074  
         H21       1.0000    0.16910   0.15930   0.02190   Biso      1.000     H          0.126433  
         H22       1.0000    0.76520   0.76520   0.22190   Biso      1.000     H          0.150362  
         H23       1.0000    0.07900   0.24870   0.01650   Biso      1.000     H          0.127074  
         H24       1.0000    0.73480   0.26520   0.77810   Biso      1.000     H          0.150362  
         N1        1.0000    0.63730   0.16620   0.73760   Biso      1.000     N          0.525136  
         N2        1.0000    0.13730   0.33380   0.73760   Biso      1.000     N          0.525136  
         N3        1.0000    0.02940   0.35720   0.42610   Biso      1.000     N          0.562163  
         N4        1.0000    0.36270   0.16620   0.26240   Biso      1.000     N          0.525136  
         N5        1.0000    0.86270   0.33380   0.26240   Biso      1.000     N          0.525136  
         N6        1.0000    0.47060   0.14280   0.57390   Biso      1.000     N          0.562162  
         N7        1.0000    0.52940   0.85720   0.42610   Biso      1.000     N          0.562162  
         N8        1.0000    0.97060   0.35720   0.57390   Biso      1.000     N          0.562162  
         N9        1.0000    0.36270   0.83380   0.26240   Biso      1.000     N          0.525136  
         N10       1.0000    0.63730   0.83380   0.73760   Biso      1.000     N          0.525136  
         N11       1.0000    0.47060   0.85720   0.57390   Biso      1.000     N          0.562163  
         N12       1.0000    0.02940   0.64280   0.42610   Biso      1.000     N          0.562163  
         N13       1.0000    0.86270   0.66620   0.26240   Biso      1.000     N          0.525136  
         N14       1.0000    0.13730   0.66620   0.73760   Biso      1.000     N          0.525136  
         N15       1.0000    0.97060   0.64280   0.57390   Biso      1.000     N          0.562162  
         N16       1.0000    0.52940   0.14280   0.42610   Biso      1.000     N          0.562163  
         O1        1.0000    0.58850   0.00000   0.08040   Biso      1.000     O          -1.016295           
         O2        1.0000    0.00950   0.31600   0.60100   Biso      1.000     O          -0.222636           
         O3        1.0000    0.90580   0.34300   0.56700   Biso      1.000     O          -0.371248           
         O4        1.0000    0.08850   0.50000   0.08040   Biso      1.000     O          -1.016295           
         O5        1.0000    0.91150   0.50000   0.91960   Biso      1.000     O          -1.016295           
         O6        1.0000    0.56083   0.91826   0.92200   Biso      1.000     O          -0.585561           
         O7        1.0000    0.98027   0.33314   0.87250   Biso      1.000     O          -0.525071           
         O8        1.0000    0.81646   0.64085   0.84530   Biso      1.000     O          -0.524756           
         O9        1.0000    0.77416   0.58692   0.97160   Biso      1.000     O          -0.574548           
         O10       1.0000    0.58600   0.87490   0.72710   Biso      1.000     O          -0.329477           
         O11       1.0000    0.68360   0.83250   0.68160   Biso      1.000     O          -0.31994  
         O12       1.0000    0.42510   0.93695   0.71390   Biso      1.000     O          -0.516765           
         O13       1.0000    0.50950   0.81600   0.60100   Biso      1.000     O          -0.222636           
         O14       1.0000    0.92510   0.43695   0.71390   Biso      1.000     O          -0.516765           
         O15       1.0000    0.18360   0.33250   0.68160   Biso      1.000     O          -0.31994  
         O16       1.0000    0.08600   0.37490   0.72710   Biso      1.000     O          -0.329477           
         O17       1.0000    0.31646   0.14085   0.84530   Biso      1.000     O          -0.524756           
         O18       1.0000    0.40580   0.84300   0.56700   Biso      1.000     O          -0.371248           
         O19       1.0000    0.27416   0.08692   0.97160   Biso      1.000     O          -0.574548           
         O20       1.0000    0.06083   0.41826   0.92200   Biso      1.000     O          -0.585561           
         O21       1.0000    0.48027   0.83314   0.87250   Biso      1.000     O          -0.525071           
         O22       1.0000    0.41150   0.00000   0.91960   Biso      1.000     O          -1.016295           
         O23       1.0000    0.49050   0.81600   0.39900   Biso      1.000     O          -0.222636           
         O24       1.0000    0.99050   0.31600   0.39900   Biso      1.000     O          -0.222636           
         O25       1.0000    0.57490   0.06305   0.28610   Biso      1.000     O          -0.516765           
         O26       1.0000    0.09420   0.34300   0.43300   Biso      1.000     O          -0.371248           
         O27       1.0000    0.41400   0.12510   0.27290   Biso      1.000     O          -0.329477           
         O28       1.0000    0.22584   0.41308   0.02840   Biso      1.000     O          -0.574548           
         O29       1.0000    0.18354   0.35915   0.15470   Biso      1.000     O          -0.524756           
         O30       1.0000    0.51973   0.16686   0.12750   Biso      1.000     O          -0.525071           
         O31       1.0000    0.43917   0.08174   0.07800   Biso      1.000     O          -0.585561           
         O32       1.0000    0.90580   0.65700   0.56700   Biso      1.000     O          -0.371248           
         O33       1.0000    0.00950   0.68400   0.60100   Biso      1.000     O          -0.222636           
         O34       1.0000    0.92510   0.56305   0.71390   Biso      1.000     O          -0.516765           
         O35       1.0000    0.18360   0.66750   0.68160   Biso      1.000     O          -0.31994  
         O36       1.0000    0.08600   0.62510   0.72710   Biso      1.000     O          -0.329477           
         O37       1.0000    0.27416   0.91308   0.97160   Biso      1.000     O          -0.574548           
         O38       1.0000    0.31646   0.85915   0.84530   Biso      1.000     O          -0.524756           
         O39       1.0000    0.98027   0.66686   0.87250   Biso      1.000     O          -0.525071           
         O40       1.0000    0.06083   0.58174   0.92200   Biso      1.000     O          -0.585561           
         O41       1.0000    0.40580   0.15700   0.56700   Biso      1.000     O          -0.371248           
         O42       1.0000    0.50950   0.18400   0.60100   Biso      1.000     O          -0.222636           
         O43       1.0000    0.42510   0.06305   0.71390   Biso      1.000     O          -0.516765           
         O44       1.0000    0.68360   0.16750   0.68160   Biso      1.000     O          -0.31994  
         O45       1.0000    0.58600   0.12510   0.72710   Biso      1.000     O          -0.329477           
         O46       1.0000    0.77416   0.41308   0.97160   Biso      1.000     O          -0.574548           
         O47       1.0000    0.81646   0.35915   0.84530   Biso      1.000     O          -0.524756           
         O48       1.0000    0.48027   0.16686   0.87250   Biso      1.000     O          -0.525071           
         O49       1.0000    0.56083   0.08174   0.92200   Biso      1.000     O          -0.585561           
         O50       1.0000    0.49050   0.18400   0.39900   Biso      1.000     O          -0.222636           
         O51       1.0000    0.59420   0.15700   0.43300   Biso      1.000     O          -0.371248           
         O52       1.0000    0.31640   0.16750   0.31840   Biso      1.000     O          -0.31994  
         O53       1.0000    0.57490   0.93695   0.28610   Biso      1.000     O          -0.516765           
         O54       1.0000    0.68354   0.14085   0.15470   Biso      1.000     O          -0.524756           
         O55       1.0000    0.72584   0.08692   0.02840   Biso      1.000     O          -0.574548           
         O56       1.0000    0.91400   0.37490   0.27290   Biso      1.000     O          -0.329477           
         O57       1.0000    0.81640   0.33250   0.31840   Biso      1.000     O          -0.31994  
         O58       1.0000    0.59420   0.84300   0.43300   Biso      1.000     O          -0.371248           
         O59       1.0000    0.93917   0.58174   0.07800   Biso      1.000     O          -0.585561           
         O60       1.0000    0.31640   0.83250   0.31840   Biso      1.000     O          -0.31994  
         O61       1.0000    0.41400   0.87490   0.27290   Biso      1.000     O          -0.329477           
         O62       1.0000    0.22584   0.58692   0.02840   Biso      1.000     O          -0.574548           
         O63       1.0000    0.18354   0.64085   0.15470   Biso      1.000     O          -0.524756           
         O64       1.0000    0.93917   0.41826   0.07800   Biso      1.000     O          -0.585561           
         O65       1.0000    0.51973   0.83314   0.12750   Biso      1.000     O          -0.525071           
         O66       1.0000    0.07490   0.43695   0.28610   Biso      1.000     O          -0.516765           
         O67       1.0000    0.09420   0.65700   0.43300   Biso      1.000     O          -0.371248           
         O68       1.0000    0.99050   0.68400   0.39900   Biso      1.000     O          -0.222636           
         O69       1.0000    0.07490   0.56305   0.28610   Biso      1.000     O          -0.516765           
         O70       1.0000    0.81640   0.66750   0.31840   Biso      1.000     O          -0.31994  
         O71       1.0000    0.91400   0.62510   0.27290   Biso      1.000     O          -0.329477           
         O72       1.0000    0.72584   0.91308   0.02840   Biso      1.000     O          -0.574548           
         O73       1.0000    0.68354   0.85915   0.15470   Biso      1.000     O          -0.524756           
         O74       1.0000    0.01973   0.66686   0.12750   Biso      1.000     O          -0.525071           
         O75       1.0000    0.43917   0.91826   0.07800   Biso      1.000     O          -0.585561           
         O76       1.0000    0.01973   0.33314   0.12750   Biso      1.000     O          -0.525071           
         Zn1       1.0000    0.16190   0.50000   0.99060   Biso      1.000     Zn          1.084374  
         Zn2       1.0000    0.40718   0.91105   0.84231   Biso      1.000     Zn          0.972613  
         Zn3       1.0000    0.66190   0.00000   0.99060   Biso      1.000     Zn          1.084374  
         Zn4       1.0000    0.09282   0.58895   0.15769   Biso      1.000     Zn          0.972613  
         Zn5       1.0000    0.09282   0.41105   0.15769   Biso      1.000     Zn          0.972613  
         Zn6       1.0000    0.90718   0.58895   0.84231   Biso      1.000     Zn          0.972613  
         Zn7       1.0000    0.33810   0.00000   0.00940   Biso      1.000     Zn          1.084374  
         Zn8       1.0000    0.00000   0.50000   0.00000   Biso      1.000     Zn          0.994926  
         Zn9       1.0000    0.50000   0.00000   0.00000   Biso      1.000     Zn          0.994926  
         Zn10      1.0000    0.59282   0.91105   0.15769   Biso      1.000     Zn          0.972613  
         Zn11      1.0000    0.59282   0.08895   0.15769   Biso      1.000     Zn          0.972613  
         Zn12      1.0000    0.90718   0.41105   0.84231   Biso      1.000     Zn          0.972613  
         Zn13      1.0000    0.83810   0.50000   0.00940   Biso      1.000     Zn          1.084374  
         Zn14      1.0000    0.40718   0.08895   0.84231   Biso      1.000     Zn          0.972613 