
##########################################################################
#               Crystallographic Information Format file
#               Produced by PyCifRW module
#
#  This is a CIF file.  CIF has been adopted by the International
#  Union of Crystallography as the standard for data archiving and
#  transmission.
#
#  For information on this file format, follow the CIF links at
#  http://www.iucr.org
##########################################################################

data_image0

_cell_length_a                          8.378
_cell_length_b                          14.9589
_cell_length_c                          17.572
_cell_angle_alpha                       90
_cell_angle_beta                        90
_cell_angle_gamma                       98.3475
_symmetry_space_group_name_H-M          'P 1'
_symmetry_int_tables_number             1
loop_
  _symmetry_equiv_pos_as_xyz
         'x, y, z' 
loop_
  _atom_site_label
  _atom_site_occupancy
  _atom_site_fract_x
  _atom_site_fract_y
  _atom_site_fract_z
  _atom_site_thermal_displace_type
  _atom_site_B_iso_or_equiv
  _atom_site_type_symbol
  _atom_site_charge
         B1        1.0000    0.34110   0.14950   0.36410   Biso      1.000     B          0.51172   
         B2        1.0000    0.15890   0.35050   0.86410   Biso      1.000     B          0.51172   
         B3        1.0000    0.65890   0.85050   0.63590   Biso      1.000     B          0.511719  
         B4        1.0000    0.84110   0.64950   0.13590   Biso      1.000     B          0.511719  
         C1        1.0000    0.26170   0.97660   0.39420   Biso      1.000     C          0.104342  
         C2        1.0000    0.36720   0.18190   0.96710   Biso      1.000     C          -0.074901           
         C3        1.0000    0.87620   0.40690   0.88160   Biso      1.000     C          -0.098824           
         C4        1.0000    0.75290   0.38880   0.93120   Biso      1.000     C          -0.045604           
         C5        1.0000    0.46630   0.55300   0.83760   Biso      1.000     C          -0.05962  
         C6        1.0000    0.40540   0.46600   0.82110   Biso      1.000     C          -0.095817           
         C7        1.0000    0.93350   0.30830   0.96560   Biso      1.000     C          0.103618  
         C8        1.0000    0.36160   0.32410   0.96980   Biso      1.000     C          0.106537  
         C9        1.0000    0.00570   0.30160   0.73700   Biso      1.000     C          0.101584  
         C10       1.0000    0.19320   0.25360   0.67190   Biso      1.000     C          -0.056008           
         C11       1.0000    0.25490   0.27590   0.74180   Biso      1.000     C          -0.095681           
         C12       1.0000    0.13280   0.31810   0.46710   Biso      1.000     C          -0.074902           
         C13       1.0000    0.23830   0.52340   0.89420   Biso      1.000     C          0.104341  
         C14       1.0000    0.62380   0.09310   0.38160   Biso      1.000     C          -0.098825           
         C15       1.0000    0.74710   0.11120   0.43120   Biso      1.000     C          -0.045607           
         C16       1.0000    0.03370   0.94700   0.33760   Biso      1.000     C          -0.05962  
         C17       1.0000    0.09460   0.03400   0.32110   Biso      1.000     C          -0.095818           
         C18       1.0000    0.56650   0.19170   0.46560   Biso      1.000     C          0.103621  
         C19       1.0000    0.13840   0.17590   0.46980   Biso      1.000     C          0.106535  
         C20       1.0000    0.49430   0.19840   0.23700   Biso      1.000     C          0.101581  
         C21       1.0000    0.30680   0.24640   0.17190   Biso      1.000     C          -0.056003           
         C22       1.0000    0.26040   0.20050   0.91270   Biso      1.000     C          -0.096722           
         C23       1.0000    0.76040   0.70050   0.58730   Biso      1.000     C          -0.096732           
         C24       1.0000    0.50570   0.80160   0.76300   Biso      1.000     C          0.101584  
         C25       1.0000    0.69320   0.75360   0.82810   Biso      1.000     C          -0.056007           
         C26       1.0000    0.76170   0.47660   0.10580   Biso      1.000     C          0.104341  
         C27       1.0000    0.63280   0.81810   0.03290   Biso      1.000     C          -0.074901           
         C28       1.0000    0.12380   0.59310   0.11840   Biso      1.000     C          -0.098825           
         C29       1.0000    0.24710   0.61120   0.06880   Biso      1.000     C          -0.045607           
         C30       1.0000    0.53370   0.44700   0.16240   Biso      1.000     C          -0.059617           
         C31       1.0000    0.59460   0.53400   0.17890   Biso      1.000     C          -0.095816           
         C32       1.0000    0.06650   0.69170   0.03440   Biso      1.000     C          0.103622  
         C33       1.0000    0.63840   0.67590   0.03020   Biso      1.000     C          0.106537  
         C34       1.0000    0.99430   0.69840   0.26300   Biso      1.000     C          0.101584  
         C35       1.0000    0.80680   0.74640   0.32810   Biso      1.000     C          -0.056007           
         C36       1.0000    0.74510   0.72410   0.25820   Biso      1.000     C          -0.095682           
         C37       1.0000    0.73960   0.79950   0.08730   Biso      1.000     C          -0.096724           
         C38       1.0000    0.73830   0.02340   0.60580   Biso      1.000     C          0.10434   
         C39       1.0000    0.86720   0.68190   0.53290   Biso      1.000     C          -0.074894           
         C40       1.0000    0.37620   0.90690   0.61840   Biso      1.000     C          -0.098826           
         C41       1.0000    0.25290   0.88880   0.56880   Biso      1.000     C          -0.045607           
         C42       1.0000    0.96630   0.05300   0.66240   Biso      1.000     C          -0.059622           
         C43       1.0000    0.90540   0.96600   0.67890   Biso      1.000     C          -0.095816           
         C44       1.0000    0.43350   0.80830   0.53440   Biso      1.000     C          0.103622  
         C45       1.0000    0.86160   0.82410   0.53020   Biso      1.000     C          0.106538  
         C46       1.0000    0.24510   0.22410   0.24180   Biso      1.000     C          -0.095682           
         C47       1.0000    0.75490   0.77590   0.75820   Biso      1.000     C          -0.095682           
         C48       1.0000    0.23960   0.29950   0.41270   Biso      1.000     C          -0.096724           
         Co1       1.0000    0.63013   0.27524   0.07816   Biso      1.000     Co          0.172715  
         Co2       1.0000    0.86987   0.22476   0.57816   Biso      1.000     Co          0.172722  
         Co3       1.0000    0.36987   0.72476   0.92184   Biso      1.000     Co          0.172727  
         Co4       1.0000    0.13013   0.77524   0.42184   Biso      1.000     Co          0.172727  
         H1        1.0000    0.09000   0.68200   0.25200   Biso      1.000     H          0.083475  
         H2        1.0000    0.64800   0.41400   0.92800   Biso      1.000     H          0.095564  
         H3        1.0000    0.56300   0.58000   0.82000   Biso      1.000     H          0.110549  
         H4        1.0000    0.19700   0.15700   0.88000   Biso      1.000     H          0.119043  
         H5        1.0000    0.37300   0.38400   0.98400   Biso      1.000     H          0.089009  
         H6        1.0000    0.24600   0.23200   0.62900   Biso      1.000     H          0.109167  
         H7        1.0000    0.45400   0.42000   0.79700   Biso      1.000     H          0.111588  
         H8        1.0000    0.88100   0.44620   0.84030   Biso      1.000     H          0.123017  
         H9        1.0000    0.35890   0.27100   0.75810   Biso      1.000     H          0.118039  
         H10       1.0000    0.35400   0.97100   0.42400   Biso      1.000     H          0.081991  
         H11       1.0000    0.50300   0.23400   0.49200   Biso      1.000     H          0.088672  
         H12       1.0000    0.10100   0.37700   0.47900   Biso      1.000     H          0.112713  
         H13       1.0000    0.39900   0.12300   0.97900   Biso      1.000     H          0.112713  
         H14       1.0000    0.85200   0.08600   0.42800   Biso      1.000     H          0.095564  
         H15       1.0000    0.60100   0.87700   0.02100   Biso      1.000     H          0.112715  
         H16       1.0000    0.30300   0.34300   0.38000   Biso      1.000     H          0.119044  
         H17       1.0000    0.12700   0.11600   0.48400   Biso      1.000     H          0.089008  
         H18       1.0000    0.25400   0.26800   0.12900   Biso      1.000     H          0.109167  
         H19       1.0000    0.04600   0.08000   0.29700   Biso      1.000     H          0.111588  
         H20       1.0000    0.61900   0.05380   0.34030   Biso      1.000     H          0.123018  
         H21       1.0000    0.14110   0.22900   0.25810   Biso      1.000     H          0.118039  
         H22       1.0000    0.59000   0.18200   0.24800   Biso      1.000     H          0.083472  
         H23       1.0000    0.91000   0.31800   0.74800   Biso      1.000     H          0.083475  
         H24       1.0000    0.93700   0.92000   0.32000   Biso      1.000     H          0.110548  
         H25       1.0000    0.14600   0.52900   0.92400   Biso      1.000     H          0.081991  
         H26       1.0000    0.99700   0.26600   0.99200   Biso      1.000     H          0.08867   
         H27       1.0000    0.00300   0.73400   0.00800   Biso      1.000     H          0.088671  
         H28       1.0000    0.85400   0.47100   0.07600   Biso      1.000     H          0.081991  
         H29       1.0000    0.35200   0.58600   0.07200   Biso      1.000     H          0.095563  
         H30       1.0000    0.43700   0.42000   0.18000   Biso      1.000     H          0.110549  
         H31       1.0000    0.62700   0.61600   0.01600   Biso      1.000     H          0.089008  
         H32       1.0000    0.75400   0.76800   0.37100   Biso      1.000     H          0.109166  
         H33       1.0000    0.54600   0.58000   0.20300   Biso      1.000     H          0.111588  
         H34       1.0000    0.11900   0.55380   0.15970   Biso      1.000     H          0.123015  
         H35       1.0000    0.64110   0.72900   0.24190   Biso      1.000     H          0.118038  
         H36       1.0000    0.64600   0.02900   0.57600   Biso      1.000     H          0.081991  
         H37       1.0000    0.80300   0.84300   0.12000   Biso      1.000     H          0.119043  
         H38       1.0000    0.41000   0.81800   0.75200   Biso      1.000     H          0.083475  
         H39       1.0000    0.85890   0.77100   0.74190   Biso      1.000     H          0.11804   
         H40       1.0000    0.49700   0.76600   0.50800   Biso      1.000     H          0.088672  
         H41       1.0000    0.38100   0.94620   0.65970   Biso      1.000     H          0.123016  
         H42       1.0000    0.95400   0.92000   0.70300   Biso      1.000     H          0.111587  
         H43       1.0000    0.87300   0.88400   0.51600   Biso      1.000     H          0.089008  
         H44       1.0000    0.74600   0.73200   0.87100   Biso      1.000     H          0.109166  
         H45       1.0000    0.69700   0.65700   0.62000   Biso      1.000     H          0.119043  
         H46       1.0000    0.06300   0.08000   0.68000   Biso      1.000     H          0.110547  
         H47       1.0000    0.14800   0.91400   0.57200   Biso      1.000     H          0.095563  
         H48       1.0000    0.89900   0.62300   0.52100   Biso      1.000     H          0.112715  
         N1        1.0000    0.28670   0.82570   0.51590   Biso      1.000     N          -0.244204           
         N2        1.0000    0.53430   0.77020   0.83130   Biso      1.000     N          -0.236993           
         N3        1.0000    0.63530   0.80730   0.71530   Biso      1.000     N          -0.191429           
         N4        1.0000    0.49470   0.85590   0.59670   Biso      1.000     N          -0.202661           
         N5        1.0000    0.75780   0.94630   0.64220   Biso      1.000     N          -0.206796           
         N6        1.0000    0.93120   0.76110   0.49710   Biso      1.000     N          -0.207287           
         N7        1.0000    0.96570   0.72980   0.33130   Biso      1.000     N          -0.236993           
         N8        1.0000    0.74210   0.70750   0.08600   Biso      1.000     N          -0.20773  
         N9        1.0000    0.00530   0.64410   0.09670   Biso      1.000     N          -0.202661           
         N10       1.0000    0.74220   0.55370   0.14220   Biso      1.000     N          -0.206796           
         N11       1.0000    0.86470   0.69270   0.21530   Biso      1.000     N          -0.191429           
         N12       1.0000    0.75790   0.79250   0.58600   Biso      1.000     N          -0.207729           
         N13       1.0000    0.21330   0.67430   0.01590   Biso      1.000     N          -0.244203           
         N14       1.0000    0.86070   0.08990   0.61680   Biso      1.000     N          -0.223066           
         N15       1.0000    0.36070   0.58990   0.88320   Biso      1.000     N          -0.22307  
         N16       1.0000    0.46570   0.22980   0.16870   Biso      1.000     N          -0.236996           
         N17       1.0000    0.78670   0.32570   0.98410   Biso      1.000     N          -0.244207           
         N18       1.0000    0.13530   0.30730   0.78470   Biso      1.000     N          -0.191431           
         N19       1.0000    0.03430   0.27020   0.66870   Biso      1.000     N          -0.236991           
         N20       1.0000    0.25780   0.44630   0.85780   Biso      1.000     N          -0.206795           
         N21       1.0000    0.99470   0.35590   0.90330   Biso      1.000     N          -0.20266  
         N22       1.0000    0.25790   0.29250   0.91400   Biso      1.000     N          -0.20773  
         N23       1.0000    0.13930   0.91010   0.38320   Biso      1.000     N          -0.22307  
         N24       1.0000    0.06880   0.23890   0.50290   Biso      1.000     N          -0.207283           
         N25       1.0000    0.71330   0.17430   0.48410   Biso      1.000     N          -0.2442   
         N26       1.0000    0.36470   0.19270   0.28470   Biso      1.000     N          -0.191428           
         N27       1.0000    0.24220   0.05370   0.35780   Biso      1.000     N          -0.206794           
         N28       1.0000    0.50530   0.14410   0.40330   Biso      1.000     N          -0.202662           
         N29       1.0000    0.24210   0.20750   0.41400   Biso      1.000     N          -0.207731           
         N30       1.0000    0.56880   0.73890   0.99710   Biso      1.000     N          -0.207286           
         N31       1.0000    0.43120   0.26110   0.00290   Biso      1.000     N          -0.207284           
         N32       1.0000    0.63930   0.41010   0.11680   Biso      1.000     N          -0.22307 