
##########################################################################
#               Crystallographic Information Format file
#               Produced by PyCifRW module
#
#  This is a CIF file.  CIF has been adopted by the International
#  Union of Crystallography as the standard for data archiving and
#  transmission.
#
#  For information on this file format, follow the CIF links at
#  http://www.iucr.org
##########################################################################

data_image0

_cell_length_a                          16.3816
_cell_length_b                          16.3816
_cell_length_c                          16.3816
_cell_angle_alpha                       90.8925
_cell_angle_beta                        90.8925
_cell_angle_gamma                       90.8925
_symmetry_space_group_name_H-M          'P 1'
_symmetry_int_tables_number             1
loop_
  _symmetry_equiv_pos_as_xyz
         'x, y, z' 
loop_
  _atom_site_label
  _atom_site_occupancy
  _atom_site_fract_x
  _atom_site_fract_y
  _atom_site_fract_z
  _atom_site_thermal_displace_type
  _atom_site_B_iso_or_equiv
  _atom_site_type_symbol
  _atom_site_charge
         C1        1.0000    0.35521   0.11501   0.54265   Biso      1.000     C          0.029947  
         C2        1.0000    0.00163   0.44165   0.93684   Biso      1.000     C          -0.158275           
         C3        1.0000    0.46361   0.00235   0.68625   Biso      1.000     C          0.039108  
         C4        1.0000    0.46126   0.97544   0.76727   Biso      1.000     C          -0.232713           
         C5        1.0000    0.49326   0.89906   0.78894   Biso      1.000     C          0.178776  
         C6        1.0000    0.52481   0.85095   0.72496   Biso      1.000     C          -0.24268699999999999          
         C7        1.0000    0.52297   0.87902   0.64375   Biso      1.000     C          0.056951999999999996          
         C8        1.0000    0.44165   0.93684   0.00163   Biso      1.000     C          -0.15831900000000002          
         C9        1.0000    0.00235   0.68625   0.46361   Biso      1.000     C          0.039169999999999996          
         C10       1.0000    0.97544   0.76727   0.46126   Biso      1.000     C          -0.23275500000000002          
         C11       1.0000    0.89905   0.78894   0.49326   Biso      1.000     C          0.17871099999999998           
         C12       1.0000    0.85095   0.72496   0.52481   Biso      1.000     C          -0.24250500000000003          
         C13       1.0000    0.87902   0.64375   0.52298   Biso      1.000     C          0.056948  
         C14       1.0000    0.93684   0.00163   0.44165   Biso      1.000     C          -0.158317           
         C15       1.0000    0.53843   0.68490   0.99939   Biso      1.000     C          0.03746   
         C16       1.0000    0.54068   0.76613   0.97248   Biso      1.000     C          -0.232062           
         C17       1.0000    0.64375   0.52298   0.87902   Biso      1.000     C          0.056983000000000006          
         C18       1.0000    0.72496   0.52481   0.85095   Biso      1.000     C          -0.242765           
         C19       1.0000    0.78895   0.49326   0.89906   Biso      1.000     C          0.17885   
         C20       1.0000    0.76727   0.46127   0.97545   Biso      1.000     C          -0.23284899999999997          
         C21       1.0000    0.31510   0.00061   0.46157   Biso      1.000     C          0.037482999999999995          
         C22       1.0000    0.06227   0.44262   0.99856   Biso      1.000     C          -0.16009400000000001          
         C23       1.0000    0.11501   0.54265   0.35521   Biso      1.000     C          0.029917000000000003          
         C24       1.0000    0.14314   0.54360   0.27418   Biso      1.000     C          -0.241313           
         C25       1.0000    0.09970   0.50109   0.21149   Biso      1.000     C          0.170547  
         C26       1.0000    0.02752   0.45932   0.23387   Biso      1.000     C          -0.23206999999999997          
         C27       1.0000    0.00062   0.46157   0.31510   Biso      1.000     C          0.037498000000000004          
         C28       1.0000    0.49891   0.78851   0.90030   Biso      1.000     C          0.170533  
         C29       1.0000    0.44261   0.99856   0.06226   Biso      1.000     C          -0.160142           
         C30       1.0000    0.54360   0.27418   0.14314   Biso      1.000     C          -0.241312           
         C31       1.0000    0.50109   0.21149   0.09970   Biso      1.000     C          0.170537  
         C32       1.0000    0.45932   0.23387   0.02752   Biso      1.000     C          -0.232078           
         C33       1.0000    0.46157   0.31510   0.00061   Biso      1.000     C          0.037487  
         C34       1.0000    0.27418   0.14314   0.54360   Biso      1.000     C          -0.24131100000000003          
         C35       1.0000    0.99856   0.06227   0.44261   Biso      1.000     C          -0.160154           
         C36       1.0000    0.68625   0.46361   0.00235   Biso      1.000     C          0.03926   
         C37       1.0000    0.54265   0.35521   0.11501   Biso      1.000     C          0.029952  
         C38       1.0000    0.45640   0.72582   0.85686   Biso      1.000     C          -0.241325           
         C39       1.0000    0.45735   0.64479   0.88499   Biso      1.000     C          0.029970999999999998          
         C40       1.0000    0.55738   0.00144   0.93773   Biso      1.000     C          -0.160125           
         C41       1.0000    0.50674   0.10094   0.21106   Biso      1.000     C          0.17874600000000002           
         C42       1.0000    0.47519   0.14905   0.27504   Biso      1.000     C          -0.24259  
         C43       1.0000    0.47702   0.12098   0.35625   Biso      1.000     C          0.056920000000000005          
         C44       1.0000    0.55835   0.06316   0.99837   Biso      1.000     C          -0.15828499999999998          
         C45       1.0000    0.99765   0.31375   0.53639   Biso      1.000     C          0.03924   
         C46       1.0000    0.02455   0.23273   0.53873   Biso      1.000     C          -0.23278000000000001          
         C47       1.0000    0.10094   0.21106   0.50674   Biso      1.000     C          0.17874600000000002           
         C48       1.0000    0.53873   0.02455   0.23273   Biso      1.000     C          -0.232814           
         C49       1.0000    0.14905   0.27504   0.47519   Biso      1.000     C          -0.24259699999999998          
         C50       1.0000    0.06316   0.99837   0.55835   Biso      1.000     C          -0.158333           
         C51       1.0000    0.50110   0.06245   0.06154   Biso      1.000     C          0.16799   
         C52       1.0000    0.06154   0.50110   0.06245   Biso      1.000     C          0.167946  
         C53       1.0000    0.06245   0.06154   0.50110   Biso      1.000     C          0.167947  
         C54       1.0000    0.93846   0.49890   0.93755   Biso      1.000     C          0.167915  
         C55       1.0000    0.49890   0.93755   0.93846   Biso      1.000     C          0.167971  
         C56       1.0000    0.93755   0.93846   0.49890   Biso      1.000     C          0.167952  
         C57       1.0000    0.12098   0.35625   0.47702   Biso      1.000     C          0.056896  
         C58       1.0000    0.23387   0.02752   0.45932   Biso      1.000     C          -0.23207199999999997          
         C59       1.0000    0.53638   0.99765   0.31375   Biso      1.000     C          0.039279  
         C60       1.0000    0.35625   0.47702   0.12098   Biso      1.000     C          0.056948  
         C61       1.0000    0.99939   0.53843   0.68490   Biso      1.000     C          0.037482999999999995          
         C62       1.0000    0.97248   0.54068   0.76613   Biso      1.000     C          -0.23207199999999997          
         C63       1.0000    0.90030   0.49891   0.78851   Biso      1.000     C          0.170525  
         C64       1.0000    0.85686   0.45640   0.72582   Biso      1.000     C          -0.241308           
         C65       1.0000    0.88499   0.45735   0.64479   Biso      1.000     C          0.029957  
         C66       1.0000    0.93774   0.55738   0.00144   Biso      1.000     C          -0.160001           
         C67       1.0000    0.68490   0.99939   0.53843   Biso      1.000     C          0.037471  
         C68       1.0000    0.99837   0.55835   0.06316   Biso      1.000     C          -0.158338           
         C69       1.0000    0.76613   0.97248   0.54068   Biso      1.000     C          -0.232066           
         C70       1.0000    0.72582   0.85686   0.45640   Biso      1.000     C          -0.241313           
         C71       1.0000    0.64479   0.88499   0.45735   Biso      1.000     C          0.029951  
         C72       1.0000    0.00144   0.93774   0.55738   Biso      1.000     C          -0.16004100000000002          
         C73       1.0000    0.31375   0.53639   0.99765   Biso      1.000     C          0.039125  
         C74       1.0000    0.23273   0.53873   0.02456   Biso      1.000     C          -0.23264400000000002          
         C75       1.0000    0.21106   0.50674   0.10095   Biso      1.000     C          0.178611  
         C76       1.0000    0.27504   0.47519   0.14905   Biso      1.000     C          -0.242504           
         C77       1.0000    0.78851   0.90030   0.49891   Biso      1.000     C          0.170527  
         C78       1.0000    0.21149   0.09970   0.50109   Biso      1.000     C          0.170539  
         Cd1       1.0000    0.50000   0.50000   0.00000   Biso      1.000     Cd          0.740375  
         Cd2       1.0000    0.00000   0.50000   0.50000   Biso      1.000     Cd          0.7403689999999999  
         Cd3       1.0000    0.50000   0.00000   0.50000   Biso      1.000     Cd          0.740401  
         H1        1.0000    0.44197   0.06246   0.67286   Biso      1.000     H          0.069655  
         H2        1.0000    0.01542   0.81304   0.43560   Biso      1.000     H          0.116217  
         H3        1.0000    0.39574   0.88868   0.00348   Biso      1.000     H          0.12041800000000001           
         H4        1.0000    0.54727   0.84096   0.59572   Biso      1.000     H          0.075909  
         H5        1.0000    0.55219   0.79270   0.73739   Biso      1.000     H          0.11358800000000001           
         H6        1.0000    0.43560   0.01542   0.81304   Biso      1.000     H          0.116224  
         H7        1.0000    0.11132   0.99652   0.60426   Biso      1.000     H          0.120433  
         H8        1.0000    0.00348   0.39574   0.88868   Biso      1.000     H          0.12041199999999999           
         H9        1.0000    0.59572   0.54727   0.84097   Biso      1.000     H          0.075883  
         H10       1.0000    0.73739   0.55219   0.79270   Biso      1.000     H          0.113606  
         H11       1.0000    0.81304   0.43560   0.01542   Biso      1.000     H          0.1162    
         H12       1.0000    0.67286   0.44197   0.06246   Biso      1.000     H          0.069648  
         H13       1.0000    0.99672   0.10990   0.39758   Biso      1.000     H          0.119556  
         H14       1.0000    0.40291   0.15090   0.57305   Biso      1.000     H          0.07346799999999999           
         H15       1.0000    0.26081   0.19819   0.57785   Biso      1.000     H          0.11215   
         H16       1.0000    0.18865   0.99173   0.42502   Biso      1.000     H          0.114727  
         H17       1.0000    0.33090   0.94518   0.42916   Biso      1.000     H          0.074508  
         H18       1.0000    0.10990   0.39758   0.99672   Biso      1.000     H          0.119486  
         H19       1.0000    0.15090   0.57305   0.40291   Biso      1.000     H          0.073464  
         H20       1.0000    0.19819   0.57785   0.26081   Biso      1.000     H          0.112152  
         H21       1.0000    0.99173   0.42502   0.18865   Biso      1.000     H          0.114727  
         H22       1.0000    0.94518   0.42916   0.33090   Biso      1.000     H          0.074447  
         H23       1.0000    0.39758   0.99672   0.10990   Biso      1.000     H          0.11951400000000001           
         H24       1.0000    0.57305   0.40291   0.15090   Biso      1.000     H          0.07347000000000001           
         H25       1.0000    0.57785   0.26081   0.19819   Biso      1.000     H          0.11215   
         H26       1.0000    0.42502   0.18865   0.99173   Biso      1.000     H          0.114724  
         H27       1.0000    0.42916   0.33090   0.94518   Biso      1.000     H          0.074509  
         H28       1.0000    0.79270   0.73739   0.55219   Biso      1.000     H          0.113551  
         H29       1.0000    0.84096   0.59572   0.54727   Biso      1.000     H          0.075878  
         H30       1.0000    0.06246   0.67286   0.44197   Biso      1.000     H          0.069663  
         H31       1.0000    0.57084   0.66910   0.05482   Biso      1.000     H          0.07450599999999999           
         H32       1.0000    0.15904   0.40428   0.45273   Biso      1.000     H          0.075887  
         H33       1.0000    0.20730   0.26261   0.44781   Biso      1.000     H          0.113598  
         H34       1.0000    0.98458   0.18696   0.56440   Biso      1.000     H          0.11620699999999999           
         H35       1.0000    0.93754   0.32714   0.55803   Biso      1.000     H          0.069648  
         H36       1.0000    0.60426   0.11132   0.99652   Biso      1.000     H          0.12041199999999999           
         H37       1.0000    0.45273   0.15904   0.40428   Biso      1.000     H          0.07588500000000001           
         H38       1.0000    0.44781   0.20730   0.26261   Biso      1.000     H          0.1136    
         H39       1.0000    0.56440   0.98458   0.18696   Biso      1.000     H          0.116211  
         H40       1.0000    0.55803   0.93754   0.32714   Biso      1.000     H          0.06969700000000001           
         H41       1.0000    0.99652   0.60426   0.11132   Biso      1.000     H          0.12043699999999999           
         H42       1.0000    0.40428   0.45273   0.15904   Biso      1.000     H          0.075876  
         H43       1.0000    0.88868   0.00348   0.39574   Biso      1.000     H          0.120405  
         H44       1.0000    0.18696   0.56440   0.98458   Biso      1.000     H          0.116155  
         H45       1.0000    0.32714   0.55803   0.93754   Biso      1.000     H          0.069676  
         H46       1.0000    0.26261   0.44781   0.20730   Biso      1.000     H          0.11355   
         H47       1.0000    0.59709   0.84910   0.42695   Biso      1.000     H          0.07346699999999999           
         H48       1.0000    0.57498   0.81135   0.00827   Biso      1.000     H          0.11473   
         H49       1.0000    0.42215   0.73919   0.80181   Biso      1.000     H          0.11214   
         H50       1.0000    0.00328   0.89010   0.60241   Biso      1.000     H          0.11944400000000001           
         H51       1.0000    0.60241   0.00328   0.89010   Biso      1.000     H          0.119493  
         H52       1.0000    0.05482   0.57084   0.66910   Biso      1.000     H          0.07451   
         H53       1.0000    0.00827   0.57498   0.81135   Biso      1.000     H          0.114728  
         H54       1.0000    0.42695   0.59709   0.84910   Biso      1.000     H          0.07347100000000001           
         H55       1.0000    0.84910   0.42695   0.59709   Biso      1.000     H          0.073473  
         H56       1.0000    0.89010   0.60242   0.00328   Biso      1.000     H          0.11943800000000002           
         H57       1.0000    0.66910   0.05482   0.57084   Biso      1.000     H          0.074505  
         H58       1.0000    0.81135   0.00827   0.57498   Biso      1.000     H          0.114727  
         H59       1.0000    0.73919   0.80181   0.42215   Biso      1.000     H          0.11214500000000001           
         H60       1.0000    0.80181   0.42215   0.73919   Biso      1.000     H          0.112152  
         N1        1.0000    0.37466   0.50643   0.04567   Biso      1.000     N          -0.30435100000000004          
         N2        1.0000    0.87490   0.49708   0.87415   Biso      1.000     N          -0.167845           
         N3        1.0000    0.12585   0.12510   0.50292   Biso      1.000     N          -0.167899           
         N4        1.0000    0.12510   0.50292   0.12586   Biso      1.000     N          -0.16785999999999998          
         N5        1.0000    0.50292   0.12585   0.12510   Biso      1.000     N          -0.16791099999999998          
         N6        1.0000    0.04566   0.37466   0.50643   Biso      1.000     N          -0.30436599999999997          
         N7        1.0000    0.50643   0.04566   0.37466   Biso      1.000     N          -0.30445  
         N8        1.0000    0.62560   0.95631   0.49649   Biso      1.000     N          -0.301683           
         N9        1.0000    0.49708   0.87415   0.87490   Biso      1.000     N          -0.167916           
         N10       1.0000    0.49649   0.62560   0.95631   Biso      1.000     N          -0.301673           
         N11       1.0000    0.95433   0.62534   0.49357   Biso      1.000     N          -0.30435999999999996          
         N12       1.0000    0.49357   0.95433   0.62534   Biso      1.000     N          -0.304253           
         N13       1.0000    0.62534   0.49357   0.95434   Biso      1.000     N          -0.304397           
         N14       1.0000    0.37440   0.04369   0.50351   Biso      1.000     N          -0.301679           
         N15       1.0000    0.04369   0.50351   0.37440   Biso      1.000     N          -0.301585           
         N16       1.0000    0.50351   0.37440   0.04369   Biso      1.000     N          -0.301671           
         N17       1.0000    0.95631   0.49649   0.62560   Biso      1.000     N          -0.301671           
         N18       1.0000    0.87415   0.87490   0.49708   Biso      1.000     N          -0.167934 