
##########################################################################
#               Crystallographic Information Format file
#               Produced by PyCifRW module
#
#  This is a CIF file.  CIF has been adopted by the International
#  Union of Crystallography as the standard for data archiving and
#  transmission.
#
#  For information on this file format, follow the CIF links at
#  http://www.iucr.org
##########################################################################

data_image0

_cell_length_a                          11.797
_cell_length_b                          17.876
_cell_length_c                          18.848
_cell_angle_alpha                       116.35
_cell_angle_beta                        90
_cell_angle_gamma                       90
_symmetry_space_group_name_H-M          'P 1'
_symmetry_int_tables_number             1
loop_
  _symmetry_equiv_pos_as_xyz
         'x, y, z' 
loop_
  _atom_site_label
  _atom_site_occupancy
  _atom_site_fract_x
  _atom_site_fract_y
  _atom_site_fract_z
  _atom_site_thermal_displace_type
  _atom_site_B_iso_or_equiv
  _atom_site_type_symbol
  _atom_site_charge
         C1        1.0000    0.58030   0.50790   0.39810   Biso      1.000     C          -0.105577           
         C2        1.0000    0.70370   0.12070   0.64180   Biso      1.000     C          -0.011369           
         C3        1.0000    0.64580   0.04580   0.61500   Biso      1.000     C          -0.109699           
         C4        1.0000    0.60230   0.91230   0.62580   Biso      1.000     C          0.624005  
         C5        1.0000    0.65190   0.99840   0.65660   Biso      1.000     C          -0.019353           
         C6        1.0000    0.70760   0.03050   0.72910   Biso      1.000     C          -0.115791           
         C7        1.0000    0.76220   0.10670   0.75790   Biso      1.000     C          -0.026160000000000003         
         C8        1.0000    0.81630   0.14290   0.83790   Biso      1.000     C          0.5893689999999999  
         C9        1.0000    0.84000   0.51890   0.01990   Biso      1.000     C          -0.12011500000000001          
         C10       1.0000    0.92170   0.64840   0.02050   Biso      1.000     C          0.617675  
         C11       1.0000    0.70600   0.17230   0.59640   Biso      1.000     C          0.623371  
         C12       1.0000    0.89040   0.55650   0.97720   Biso      1.000     C          -0.026694           
         C13       1.0000    0.93310   0.36820   0.77690   Biso      1.000     C          0.630679  
         C14       1.0000    0.90090   0.42200   0.86260   Biso      1.000     C          -0.028248000000000002         
         C15       1.0000    0.85380   0.38510   0.90710   Biso      1.000     C          -0.129342           
         C16       1.0000    0.82210   0.43320   0.98540   Biso      1.000     C          -0.019152000000000002         
         C17       1.0000    0.77430   0.39310   0.03400   Biso      1.000     C          0.585642  
         C18       1.0000    0.26410   0.84960   0.78770   Biso      1.000     C          -0.149517           
         C19       1.0000    0.20600   0.82770   0.90360   Biso      1.000     C          0.6233069999999999  
         C20       1.0000    0.20370   0.87930   0.85820   Biso      1.000     C          -0.011337999999999999         
         C21       1.0000    0.14580   0.95420   0.88500   Biso      1.000     C          -0.109729           
         C22       1.0000    0.91970   0.50790   0.89810   Biso      1.000     C          -0.10553399999999999          
         C23       1.0000    0.10230   0.08770   0.87420   Biso      1.000     C          0.624045  
         C24       1.0000    0.76410   0.15040   0.71230   Biso      1.000     C          -0.149538           
         C25       1.0000    0.67790   0.43320   0.48540   Biso      1.000     C          -0.019086000000000002         
         C26       1.0000    0.09910   0.57800   0.13740   Biso      1.000     C          -0.028237           
         C27       1.0000    0.14620   0.61490   0.09290   Biso      1.000     C          -0.129328           
         C28       1.0000    0.17790   0.56680   0.01460   Biso      1.000     C          -0.019073           
         C29       1.0000    0.22570   0.60690   0.96600   Biso      1.000     C          0.585507  
         C30       1.0000    0.73590   0.15040   0.21230   Biso      1.000     C          -0.149589           
         C31       1.0000    0.79400   0.17230   0.09640   Biso      1.000     C          0.623445  
         C32       1.0000    0.79630   0.12070   0.14180   Biso      1.000     C          -0.011423           
         C33       1.0000    0.85420   0.04580   0.11500   Biso      1.000     C          -0.109714           
         C34       1.0000    0.89770   0.91230   0.12580   Biso      1.000     C          0.623915  
         C35       1.0000    0.72570   0.39310   0.53400   Biso      1.000     C          0.585554  
         C36       1.0000    0.84810   0.99840   0.15660   Biso      1.000     C          -0.019312           
         C37       1.0000    0.73780   0.10670   0.25790   Biso      1.000     C          -0.02615  
         C38       1.0000    0.68370   0.14290   0.33790   Biso      1.000     C          0.5893430000000001  
         C39       1.0000    0.66000   0.51890   0.51990   Biso      1.000     C          -0.120118           
         C40       1.0000    0.57830   0.64840   0.52050   Biso      1.000     C          0.6177590000000001  
         C41       1.0000    0.60960   0.55650   0.47720   Biso      1.000     C          -0.02673  
         C42       1.0000    0.10960   0.44350   0.02280   Biso      1.000     C          -0.026838           
         C43       1.0000    0.56690   0.36820   0.27690   Biso      1.000     C          0.63072   
         C44       1.0000    0.59910   0.42200   0.36260   Biso      1.000     C          -0.028260000000000004         
         C45       1.0000    0.64620   0.38510   0.40710   Biso      1.000     C          -0.12931099999999998          
         C46       1.0000    0.79240   0.03050   0.22910   Biso      1.000     C          -0.115774           
         C47       1.0000    0.15190   0.00160   0.84340   Biso      1.000     C          -0.019418           
         C48       1.0000    0.20760   0.96950   0.77090   Biso      1.000     C          -0.115851           
         C49       1.0000    0.26220   0.89330   0.74210   Biso      1.000     C          -0.026177           
         C50       1.0000    0.23590   0.84960   0.28770   Biso      1.000     C          -0.149516           
         C51       1.0000    0.29400   0.82770   0.40360   Biso      1.000     C          0.6233810000000001  
         C52       1.0000    0.29630   0.87930   0.35820   Biso      1.000     C          -0.011405           
         C53       1.0000    0.35420   0.95420   0.38500   Biso      1.000     C          -0.10976300000000001          
         C54       1.0000    0.39770   0.08770   0.37420   Biso      1.000     C          0.62402   
         C55       1.0000    0.34810   0.00160   0.34340   Biso      1.000     C          -0.019403           
         C56       1.0000    0.29240   0.96950   0.27090   Biso      1.000     C          -0.11583399999999999          
         C57       1.0000    0.23780   0.89330   0.24210   Biso      1.000     C          -0.026105           
         C58       1.0000    0.18370   0.85710   0.16210   Biso      1.000     C          0.589291  
         C59       1.0000    0.16000   0.48110   0.98010   Biso      1.000     C          -0.120196           
         C60       1.0000    0.07830   0.35160   0.97950   Biso      1.000     C          0.617794  
         C61       1.0000    0.06690   0.63180   0.22310   Biso      1.000     C          0.630601  
         C62       1.0000    0.08030   0.49210   0.10190   Biso      1.000     C          -0.10566700000000001          
         C63       1.0000    0.31630   0.85710   0.66210   Biso      1.000     C          0.58936   
         C64       1.0000    0.34000   0.48110   0.48010   Biso      1.000     C          -0.12021099999999998          
         C65       1.0000    0.42170   0.35160   0.47950   Biso      1.000     C          0.6177630000000001  
         C66       1.0000    0.39040   0.44350   0.52280   Biso      1.000     C          -0.026795           
         C67       1.0000    0.41970   0.49210   0.60190   Biso      1.000     C          -0.10561400000000001          
         C68       1.0000    0.43310   0.63180   0.72310   Biso      1.000     C          0.630608  
         C69       1.0000    0.40090   0.57800   0.63740   Biso      1.000     C          -0.028193           
         C70       1.0000    0.35380   0.61490   0.59290   Biso      1.000     C          -0.12933699999999998          
         C71       1.0000    0.32210   0.56680   0.51460   Biso      1.000     C          -0.019122           
         C72       1.0000    0.27430   0.60690   0.46600   Biso      1.000     C          0.585566  
         H1        1.0000    0.18210   0.44860   0.92800   Biso      1.000     H          0.142151  
         H2        1.0000    0.19410   0.80060   0.27090   Biso      1.000     H          0.11201099999999999           
         H3        1.0000    0.34330   0.67240   0.61590   Biso      1.000     H          0.12101500000000001           
         H4        1.0000    0.45190   0.46700   0.63100   Biso      1.000     H          0.13103199999999998           
         H5        1.0000    0.31790   0.44860   0.42800   Biso      1.000     H          0.142154  
         H6        1.0000    0.20810   0.99960   0.74140   Biso      1.000     H          0.12339100000000001           
         H7        1.0000    0.10260   0.97280   0.93090   Biso      1.000     H          0.139468  
         H8        1.0000    0.30590   0.80060   0.77090   Biso      1.000     H          0.11200399999999999           
         H9        1.0000    0.04810   0.46700   0.13100   Biso      1.000     H          0.13098800000000002           
         H10       1.0000    0.15670   0.67240   0.11590   Biso      1.000     H          0.121023  
         H11       1.0000    0.69410   0.19940   0.22910   Biso      1.000     H          0.111969  
         H12       1.0000    0.89740   0.02720   0.06910   Biso      1.000     H          0.139491  
         H13       1.0000    0.79190   0.00040   0.25860   Biso      1.000     H          0.12341300000000001           
         H14       1.0000    0.68210   0.55140   0.57200   Biso      1.000     H          0.142215  
         H15       1.0000    0.29190   0.99960   0.24140   Biso      1.000     H          0.123396  
         H16       1.0000    0.54810   0.53300   0.36900   Biso      1.000     H          0.13106900000000002           
         H17       1.0000    0.39740   0.97280   0.43090   Biso      1.000     H          0.139473  
         H18       1.0000    0.60260   0.02720   0.56910   Biso      1.000     H          0.139499  
         H19       1.0000    0.70810   0.00040   0.75860   Biso      1.000     H          0.12341700000000001           
         H20       1.0000    0.81790   0.55140   0.07200   Biso      1.000     H          0.14218599999999998           
         H21       1.0000    0.95190   0.53300   0.86900   Biso      1.000     H          0.131056  
         H22       1.0000    0.84330   0.32760   0.88410   Biso      1.000     H          0.120995  
         H23       1.0000    0.65670   0.32760   0.38410   Biso      1.000     H          0.12101700000000001           
         H24       1.0000    0.80590   0.19940   0.72910   Biso      1.000     H          0.11199200000000001           
         Mn1       1.0000    0.42080   0.78545   0.52400   Biso      1.000     Mn          1.039844  
         Mn2       1.0000    0.94769   0.78750   0.19929   Biso      1.000     Mn          1.132334  
         Mn3       1.0000    0.55231   0.78750   0.69929   Biso      1.000     Mn          1.133083  
         Mn4       1.0000    0.92080   0.21455   0.97600   Biso      1.000     Mn          1.039891  
         Mn5       1.0000    0.67511   0.33332   0.12328   Biso      1.000     Mn          1.094087  
         Mn6       1.0000    0.05231   0.21250   0.80071   Biso      1.000     Mn          1.133185  
         Mn7       1.0000    0.17511   0.66668   0.37672   Biso      1.000     Mn          1.093138  
         Mn8       1.0000    0.82489   0.33332   0.62328   Biso      1.000     Mn          1.093435  
         Mn9       1.0000    0.44769   0.21250   0.30071   Biso      1.000     Mn          1.133194  
         Mn10      1.0000    0.07920   0.78545   0.02400   Biso      1.000     Mn          1.0397319999999999  
         Mn11      1.0000    0.32489   0.66668   0.87672   Biso      1.000     Mn          1.092386  
         Mn12      1.0000    0.57920   0.21455   0.47600   Biso      1.000     Mn          1.039756  
         O1        1.0000    0.95890   0.88649   0.06525   Biso      1.000     O          -0.535708           
         O2        1.0000    0.77430   0.43847   0.59873   Biso      1.000     O          -0.544868           
         O3        1.0000    0.53030   0.29609   0.25807   Biso      1.000     O          -0.5936130000000001           
         O4        1.0000    0.58180   0.39949   0.22921   Biso      1.000     O          -0.570232           
         O5        1.0000    0.53120   0.68084   0.48057   Biso      1.000     O          -0.562805           
         O6        1.0000    0.59950   0.68345   0.59281   Biso      1.000     O          -0.583572           
         O7        1.0000    0.60210   0.19496   0.35148   Biso      1.000     O          -0.627847           
         O8        1.0000    0.71890   0.12465   0.39036   Biso      1.000     O          -0.500223           
         O9        1.0000    0.87150   0.87245   0.16409   Biso      1.000     O          -0.6093890000000001           
         O10       1.0000    0.88350   0.17470   0.06194   Biso      1.000     O          -0.5339470000000001           
         O11       1.0000    0.03120   0.31916   0.01943   Biso      1.000     O          -0.562873           
         O12       1.0000    0.21690   0.68515   0.99014   Biso      1.000     O          -0.593957           
         O13       1.0000    0.27430   0.56153   0.90127   Biso      1.000     O          -0.544981           
         O14       1.0000    0.03030   0.70391   0.24193   Biso      1.000     O          -0.593555           
         O15       1.0000    0.08180   0.60051   0.27079   Biso      1.000     O          -0.570264           
         O16       1.0000    0.71690   0.31485   0.50986   Biso      1.000     O          -0.593983           
         O17       1.0000    0.09950   0.31655   0.90719   Biso      1.000     O          -0.583603           
         O18       1.0000    0.10210   0.80504   0.14852   Biso      1.000     O          -0.627786           
         O19       1.0000    0.21890   0.87535   0.10964   Biso      1.000     O          -0.5002989999999999           
         O20       1.0000    0.37150   0.12755   0.33591   Biso      1.000     O          -0.609477           
         O21       1.0000    0.45890   0.11351   0.43475   Biso      1.000     O          -0.535695           
         O22       1.0000    0.70220   0.20818   0.09703   Biso      1.000     O          -0.588288           
         O23       1.0000    0.79780   0.20818   0.59703   Biso      1.000     O          -0.5882310000000001           
         O24       1.0000    0.89790   0.19496   0.85148   Biso      1.000     O          -0.627832           
         O25       1.0000    0.54110   0.88649   0.56525   Biso      1.000     O          -0.535675           
         O26       1.0000    0.28310   0.68515   0.49014   Biso      1.000     O          -0.594001           
         O27       1.0000    0.22570   0.56153   0.40127   Biso      1.000     O          -0.544936           
         O28       1.0000    0.46970   0.70391   0.74193   Biso      1.000     O          -0.5936680000000001           
         O29       1.0000    0.41820   0.60051   0.77079   Biso      1.000     O          -0.5701510000000001           
         O30       1.0000    0.46880   0.31916   0.51943   Biso      1.000     O          -0.562811           
         O31       1.0000    0.40050   0.31655   0.40719   Biso      1.000     O          -0.583609           
         O32       1.0000    0.39790   0.80504   0.64852   Biso      1.000     O          -0.627845           
         O33       1.0000    0.28110   0.87535   0.60964   Biso      1.000     O          -0.500265           
         O34       1.0000    0.12850   0.12755   0.83591   Biso      1.000     O          -0.609496           
         O35       1.0000    0.04110   0.11351   0.93475   Biso      1.000     O          -0.5357149999999999           
         O36       1.0000    0.11650   0.82530   0.93806   Biso      1.000     O          -0.534044           
         O37       1.0000    0.29780   0.79182   0.90297   Biso      1.000     O          -0.588218           
         O38       1.0000    0.78310   0.31485   0.00986   Biso      1.000     O          -0.594055           
         O39       1.0000    0.72570   0.43847   0.09873   Biso      1.000     O          -0.544887           
         O40       1.0000    0.96970   0.29609   0.75807   Biso      1.000     O          -0.593646           
         O41       1.0000    0.91820   0.39949   0.72921   Biso      1.000     O          -0.570175           
         O42       1.0000    0.96880   0.68084   0.98057   Biso      1.000     O          -0.562814           
         O43       1.0000    0.90050   0.68345   0.09281   Biso      1.000     O          -0.583548           
         O44       1.0000    0.38350   0.82530   0.43806   Biso      1.000     O          -0.5340159999999999           
         O45       1.0000    0.78110   0.12465   0.89036   Biso      1.000     O          -0.500256           
         O46       1.0000    0.62850   0.87245   0.66409   Biso      1.000     O          -0.609466           
         O47       1.0000    0.61650   0.17470   0.56194   Biso      1.000     O          -0.533958           
         O48       1.0000    0.20220   0.79182   0.40297   Biso      1.000     O          -0.588221 