
##########################################################################
#               Crystallographic Information Format file
#               Produced by PyCifRW module
#
#  This is a CIF file.  CIF has been adopted by the International
#  Union of Crystallography as the standard for data archiving and
#  transmission.
#
#  For information on this file format, follow the CIF links at
#  http://www.iucr.org
##########################################################################

data_image0

_cell_length_a                          7.7745
_cell_length_b                          11.4635
_cell_length_c                          13.5377
_cell_angle_alpha                       96.803
_cell_angle_beta                        105.71
_cell_angle_gamma                       99.225
_symmetry_space_group_name_H-M          'P 1'
_symmetry_int_tables_number             1
loop_
  _symmetry_equiv_pos_as_xyz
         'x, y, z' 
loop_
  _atom_site_label
  _atom_site_occupancy
  _atom_site_fract_x
  _atom_site_fract_y
  _atom_site_fract_z
  _atom_site_thermal_displace_type
  _atom_site_B_iso_or_equiv
  _atom_site_type_symbol
  _atom_site_charge
         C1        1.0000    0.97980   0.03820   0.53305   Biso      1.000     C          -0.159018           
         C2        1.0000    0.91470   0.10696   0.69623   Biso      1.000     C          -0.206932           
         C3        1.0000    0.91420   0.09375   0.79664   Biso      1.000     C          0.072908  
         C4        1.0000    0.70910   0.58707   0.23002   Biso      1.000     C          0.058825  
         C5        1.0000    0.80740   0.58070   0.33220   Biso      1.000     C          -0.22167699999999999          
         C6        1.0000    0.88680   0.48160   0.35140   Biso      1.000     C          0.14365799999999998           
         C7        1.0000    0.85910   0.39370   0.26550   Biso      1.000     C          -0.194703           
         C8        1.0000    0.75150   0.40360   0.16850   Biso      1.000     C          0.117372  
         C9        1.0000    0.99370   0.46700   0.45466   Biso      1.000     C          -0.157859           
         C10       1.0000    0.96390   0.07378   0.21265   Biso      1.000     C          0.08355   
         C11       1.0000    0.97810   0.02451   0.63882   Biso      1.000     C          0.153612  
         C12       1.0000    0.96070   0.06843   0.31310   Biso      1.000     C          -0.208853           
         C13       1.0000    0.08530   0.89304   0.30377   Biso      1.000     C          -0.206932           
         C14       1.0000    0.08580   0.90625   0.20336   Biso      1.000     C          0.072908  
         C15       1.0000    0.02020   0.96180   0.46695   Biso      1.000     C          -0.158974           
         C16       1.0000    0.29090   0.41293   0.76998   Biso      1.000     C          0.058825  
         C17       1.0000    0.19260   0.41930   0.66780   Biso      1.000     C          -0.22167699999999999          
         C18       1.0000    0.11320   0.51840   0.64860   Biso      1.000     C          0.143654  
         C19       1.0000    0.14090   0.60630   0.73450   Biso      1.000     C          -0.194703           
         C20       1.0000    0.24850   0.59640   0.83150   Biso      1.000     C          0.117372  
         C21       1.0000    0.00630   0.53300   0.54534   Biso      1.000     C          -0.157824           
         C22       1.0000    0.02190   0.97549   0.36118   Biso      1.000     C          0.153609  
         C23       1.0000    0.03610   0.92622   0.78735   Biso      1.000     C          0.083549  
         C24       1.0000    0.03930   0.93157   0.68690   Biso      1.000     C          -0.208853           
         Co1       1.0000    0.50000   0.50000   0.00000   Biso      1.000     Co          0.9166059999999999  
         Co2       1.0000    0.00000   0.00000   0.00000   Biso      1.000     Co          0.493262  
         H1        1.0000    0.26920   0.65900   0.88640   Biso      1.000     H          0.10654100000000001           
         H2        1.0000    0.07810   0.86390   0.81840   Biso      1.000     H          0.097899  
         H3        1.0000    0.08200   0.87360   0.65130   Biso      1.000     H          0.12299000000000002           
         H4        1.0000    0.87290   0.17070   0.66760   Biso      1.000     H          0.11221300000000001           
         H5        1.0000    0.86870   0.14880   0.83350   Biso      1.000     H          0.079688  
         H6        1.0000    0.94920   0.10770   0.51050   Biso      1.000     H          0.111475  
         H7        1.0000    0.08640   0.67250   0.72660   Biso      1.000     H          0.125343  
         H8        1.0000    0.81950   0.64200   0.38660   Biso      1.000     H          0.12542799999999998           
         H9        1.0000    0.91360   0.32750   0.27340   Biso      1.000     H          0.125343  
         H10       1.0000    0.73080   0.34100   0.11360   Biso      1.000     H          0.10654000000000001           
         H11       1.0000    0.66330   0.65570   0.21730   Biso      1.000     H          0.08651   
         H12       1.0000    0.92190   0.13610   0.18160   Biso      1.000     H          0.097899  
         H13       1.0000    0.05910   0.40570   0.45730   Biso      1.000     H          0.113969  
         H14       1.0000    0.18050   0.35800   0.61340   Biso      1.000     H          0.12542799999999998           
         H15       1.0000    0.33670   0.34430   0.78270   Biso      1.000     H          0.086511  
         H16       1.0000    0.05080   0.89230   0.48950   Biso      1.000     H          0.111472  
         H17       1.0000    0.94090   0.59430   0.54270   Biso      1.000     H          0.11396700000000001           
         H18       1.0000    0.12710   0.82930   0.33240   Biso      1.000     H          0.11221199999999999           
         H19       1.0000    0.91800   0.12640   0.34870   Biso      1.000     H          0.12299000000000002           
         H20       1.0000    0.13130   0.85120   0.16650   Biso      1.000     H          0.079688  
         N1        1.0000    0.97560   0.00610   0.84259   Biso      1.000     N          -0.17715799999999998          
         N2        1.0000    0.67610   0.49765   0.14954   Biso      1.000     N          -0.210378           
         N3        1.0000    0.02440   0.99390   0.15741   Biso      1.000     N          -0.17715799999999998          
         N4        1.0000    0.32390   0.50235   0.85046   Biso      1.000     N          -0.210377           
         O1        1.0000    0.84735   0.57848   0.85880   Biso      1.000     O          -0.911977           
         O2        1.0000    0.93805   0.81564   0.96682   Biso      1.000     O          -0.814064           
         O3        1.0000    0.34591   0.59634   0.06739   Biso      1.000     O          -0.775853           
         O4        1.0000    0.34944   0.33652   0.01021   Biso      1.000     O          -0.812503           
         O5        1.0000    0.99846   0.36742   0.91695   Biso      1.000     O          -0.939787           
         O6        1.0000    0.00154   0.63258   0.08305   Biso      1.000     O          -0.9397840000000001           
         O7        1.0000    0.15265   0.42152   0.14120   Biso      1.000     O          -0.911974           
         O8        1.0000    0.65409   0.40366   0.93261   Biso      1.000     O          -0.7758510000000001           
         O9        1.0000    0.06195   0.18436   0.03318   Biso      1.000     O          -0.814064           
         O10       1.0000    0.65056   0.66348   0.98979   Biso      1.000     O          -0.8125020000000001           
         V1        1.0000    0.20555   0.58047   0.13956   Biso      1.000     V          1.423946  
         V2        1.0000    0.14243   0.32339   0.02523   Biso      1.000     V          1.949859  
         V3        1.0000    0.79445   0.41953   0.86044   Biso      1.000     V          1.423951  
         V4        1.0000    0.85757   0.67661   0.97477   Biso      1.000     V          1.94986 