
##########################################################################
#               Crystallographic Information Format file
#               Produced by PyCifRW module
#
#  This is a CIF file.  CIF has been adopted by the International
#  Union of Crystallography as the standard for data archiving and
#  transmission.
#
#  For information on this file format, follow the CIF links at
#  http://www.iucr.org
##########################################################################

data_image0

_cell_length_a                          7.7086
_cell_length_b                          11.4007
_cell_length_c                          13.499
_cell_angle_alpha                       96.395
_cell_angle_beta                        105.619
_cell_angle_gamma                       99.339
_symmetry_space_group_name_H-M          'P 1'
_symmetry_int_tables_number             1
loop_
  _symmetry_equiv_pos_as_xyz
         'x, y, z' 
loop_
  _atom_site_label
  _atom_site_occupancy
  _atom_site_fract_x
  _atom_site_fract_y
  _atom_site_fract_z
  _atom_site_thermal_displace_type
  _atom_site_B_iso_or_equiv
  _atom_site_type_symbol
  _atom_site_charge
         C1        1.0000    0.98300   0.04053   0.53358   Biso      1.000     C          -0.154222           
         C2        1.0000    0.91440   0.10815   0.69705   Biso      1.000     C          -0.212129           
         C3        1.0000    0.91280   0.09417   0.79773   Biso      1.000     C          0.083035  
         C4        1.0000    0.70230   0.58693   0.22992   Biso      1.000     C          0.063992  
         C5        1.0000    0.80530   0.58242   0.33037   Biso      1.000     C          -0.218147           
         C6        1.0000    0.88640   0.48297   0.35076   Biso      1.000     C          0.14701   
         C7        1.0000    0.86070   0.39367   0.26571   Biso      1.000     C          -0.189953           
         C8        1.0000    0.75280   0.40355   0.16766   Biso      1.000     C          0.126027  
         C9        1.0000    0.99460   0.46727   0.45471   Biso      1.000     C          -0.153393           
         C10       1.0000    0.95430   0.07144   0.20918   Biso      1.000     C          0.088258  
         C11       1.0000    0.98280   0.02681   0.64043   Biso      1.000     C          0.153377  
         C12       1.0000    0.95060   0.06552   0.31037   Biso      1.000     C          -0.2089   
         C13       1.0000    0.08560   0.89185   0.30295   Biso      1.000     C          -0.212144           
         C14       1.0000    0.08720   0.90583   0.20227   Biso      1.000     C          0.083007  
         C15       1.0000    0.01700   0.95947   0.46642   Biso      1.000     C          -0.154186           
         C16       1.0000    0.29770   0.41307   0.77008   Biso      1.000     C          0.064122  
         C17       1.0000    0.19470   0.41758   0.66963   Biso      1.000     C          -0.218135           
         C18       1.0000    0.11360   0.51703   0.64924   Biso      1.000     C          0.146989  
         C19       1.0000    0.13930   0.60633   0.73429   Biso      1.000     C          -0.189981           
         C20       1.0000    0.24720   0.59645   0.83234   Biso      1.000     C          0.125941  
         C21       1.0000    0.00540   0.53273   0.54529   Biso      1.000     C          -0.153325           
         C22       1.0000    0.01720   0.97319   0.35957   Biso      1.000     C          0.153394  
         C23       1.0000    0.04570   0.92856   0.79082   Biso      1.000     C          0.08826   
         C24       1.0000    0.04940   0.93448   0.68963   Biso      1.000     C          -0.208911           
         H1        1.0000    0.26450   0.65800   0.88750   Biso      1.000     H          0.110029  
         H2        1.0000    0.09140   0.86720   0.82290   Biso      1.000     H          0.100095  
         H3        1.0000    0.09560   0.87780   0.65470   Biso      1.000     H          0.123397  
         H4        1.0000    0.87020   0.17140   0.66760   Biso      1.000     H          0.114018  
         H5        1.0000    0.86330   0.14770   0.83380   Biso      1.000     H          0.080918  
         H6        1.0000    0.95730   0.11170   0.51110   Biso      1.000     H          0.111751  
         H7        1.0000    0.08410   0.67260   0.72530   Biso      1.000     H          0.12724   
         H8        1.0000    0.82050   0.64530   0.38410   Biso      1.000     H          0.124592  
         H9        1.0000    0.91590   0.32740   0.27470   Biso      1.000     H          0.127248  
         H10       1.0000    0.73550   0.34200   0.11250   Biso      1.000     H          0.110032  
         H11       1.0000    0.06140   0.40610   0.45740   Biso      1.000     H          0.11724   
         H12       1.0000    0.65150   0.65450   0.21780   Biso      1.000     H          0.085202  
         H13       1.0000    0.90440   0.12220   0.34530   Biso      1.000     H          0.123398  
         H14       1.0000    0.12980   0.82860   0.33240   Biso      1.000     H          0.114018  
         H15       1.0000    0.13670   0.85230   0.16620   Biso      1.000     H          0.080864  
         H16       1.0000    0.04270   0.88830   0.48890   Biso      1.000     H          0.111751  
         H17       1.0000    0.34850   0.34550   0.78220   Biso      1.000     H          0.0852    
         H18       1.0000    0.17950   0.35470   0.61590   Biso      1.000     H          0.124582  
         H19       1.0000    0.93860   0.59390   0.54260   Biso      1.000     H          0.117238  
         H20       1.0000    0.90860   0.13280   0.17710   Biso      1.000     H          0.100093  
         N1        1.0000    0.32764   0.50207   0.85094   Biso      1.000     N          -0.19167  
         N2        1.0000    0.02060   0.99313   0.15505   Biso      1.000     N          -0.181679           
         N3        1.0000    0.67236   0.49793   0.14906   Biso      1.000     N          -0.191632           
         N4        1.0000    0.97940   0.00687   0.84495   Biso      1.000     N          -0.181705           
         Ni1       1.0000    0.00000   0.00000   0.00000   Biso      1.000     Ni          0.500407  
         Ni2       1.0000    0.50000   0.50000   0.00000   Biso      1.000     Ni          0.894234  
         O1        1.0000    0.00041   0.36830   0.91582   Biso      1.000     O          -0.937453           
         O2        1.0000    0.34701   0.59564   0.06755   Biso      1.000     O          -0.776609           
         O3        1.0000    0.94085   0.81669   0.96700   Biso      1.000     O          -0.83091  
         O4        1.0000    0.84751   0.58034   0.85778   Biso      1.000     O          -0.920395           
         O5        1.0000    0.35308   0.33542   0.01090   Biso      1.000     O          -0.816908           
         O6        1.0000    0.99959   0.63170   0.08418   Biso      1.000     O          -0.937988           
         O7        1.0000    0.15249   0.41966   0.14222   Biso      1.000     O          -0.920724           
         O8        1.0000    0.65299   0.40436   0.93245   Biso      1.000     O          -0.777152           
         O9        1.0000    0.05915   0.18331   0.03300   Biso      1.000     O          -0.830957           
         O10       1.0000    0.64692   0.66458   0.98910   Biso      1.000     O          -0.816881           
         V1        1.0000    0.20598   0.57960   0.14078   Biso      1.000     V          1.388803  
         V2        1.0000    0.14293   0.32289   0.02534   Biso      1.000     V          1.950562  
         V3        1.0000    0.79402   0.42040   0.85922   Biso      1.000     V          1.389132  
         V4        1.0000    0.85707   0.67711   0.97466   Biso      1.000     V          1.950635 