
##########################################################################
#               Crystallographic Information Format file
#               Produced by PyCifRW module
#
#  This is a CIF file.  CIF has been adopted by the International
#  Union of Crystallography as the standard for data archiving and
#  transmission.
#
#  For information on this file format, follow the CIF links at
#  http://www.iucr.org
##########################################################################

data_image0

_cell_length_a                          7.903
_cell_length_b                          10.5379
_cell_length_c                          32.858
_cell_angle_alpha                       90
_cell_angle_beta                        90
_cell_angle_gamma                       99.607
_symmetry_space_group_name_H-M          'P 1'
_symmetry_int_tables_number             1
loop_
  _symmetry_equiv_pos_as_xyz
         'x, y, z' 
loop_
  _atom_site_label
  _atom_site_occupancy
  _atom_site_fract_x
  _atom_site_fract_y
  _atom_site_fract_z
  _atom_site_thermal_displace_type
  _atom_site_B_iso_or_equiv
  _atom_site_type_symbol
  _atom_site_charge
         C1        1.0000    0.29420   0.14300   0.70029   Biso      1.000     C          -0.01737  
         C2        1.0000    0.81430   0.06140   0.41313   Biso      1.000     C          -0.05513099999999999          
         C3        1.0000    0.84860   0.12910   0.44957   Biso      1.000     C          -0.013794999999999998         
         C4        1.0000    0.78210   0.07370   0.48570   Biso      1.000     C          -0.094609           
         C5        1.0000    0.68380   0.95170   0.48603   Biso      1.000     C          -0.088312           
         C6        1.0000    0.65150   0.88150   0.45018   Biso      1.000     C          -0.015424           
         C7        1.0000    0.71870   0.93630   0.41366   Biso      1.000     C          -0.050829           
         C8        1.0000    0.87070   0.12500   0.37384   Biso      1.000     C          0.355417  
         C9        1.0000    0.70140   0.85860   0.37567   Biso      1.000     C          0.35631199999999996           
         C10       1.0000    0.70580   0.85700   0.29971   Biso      1.000     C          -0.016036           
         C11       1.0000    0.76940   0.91380   0.26333   Biso      1.000     C          -0.086529           
         C12       1.0000    0.87040   0.03430   0.26291   Biso      1.000     C          -0.091542           
         C13       1.0000    0.90760   0.10280   0.29894   Biso      1.000     C          -0.009989           
         C14       1.0000    0.48040   0.76610   0.79600   Biso      1.000     C          0.617294  
         C15       1.0000    0.90930   0.27300   0.79742   Biso      1.000     C          0.614039  
         C16       1.0000    0.74670   0.92330   0.33628   Biso      1.000     C          -0.053242           
         C17       1.0000    0.95880   0.24970   0.95319   Biso      1.000     C          0.614579  
         C18       1.0000    0.84440   0.04800   0.33577   Biso      1.000     C          -0.058154           
         C19       1.0000    0.59070   0.72700   0.29742   Biso      1.000     C          0.612741  
         C20       1.0000    0.68570   0.93860   0.91313   Biso      1.000     C          -0.057396           
         C21       1.0000    0.65140   0.87090   0.94957   Biso      1.000     C          -0.015078           
         C22       1.0000    0.71790   0.92630   0.98570   Biso      1.000     C          -0.091757           
         C23       1.0000    0.81620   0.04830   0.98603   Biso      1.000     C          -0.085812           
         C24       1.0000    0.84850   0.11850   0.95018   Biso      1.000     C          -0.015633           
         C25       1.0000    0.78130   0.06370   0.91366   Biso      1.000     C          -0.052565999999999995         
         C26       1.0000    0.01960   0.23390   0.29600   Biso      1.000     C          0.616409  
         C27       1.0000    0.79860   0.14140   0.87567   Biso      1.000     C          0.356639  
         C28       1.0000    0.79420   0.14300   0.79971   Biso      1.000     C          -0.017615000000000002         
         C29       1.0000    0.73060   0.08620   0.76333   Biso      1.000     C          -0.087108           
         C30       1.0000    0.62960   0.96570   0.76291   Biso      1.000     C          -0.09235700000000001          
         C31       1.0000    0.59240   0.89720   0.79894   Biso      1.000     C          -0.011012000000000001         
         C32       1.0000    0.96420   0.25820   0.45291   Biso      1.000     C          0.613866  
         C33       1.0000    0.54120   0.75030   0.45319   Biso      1.000     C          0.614269  
         C34       1.0000    0.75330   0.07670   0.83628   Biso      1.000     C          -0.051838           
         C35       1.0000    0.53580   0.74180   0.95291   Biso      1.000     C          0.614109  
         C36       1.0000    0.09240   0.89720   0.70106   Biso      1.000     C          -0.010773999999999999         
         C37       1.0000    0.12960   0.96570   0.73709   Biso      1.000     C          -0.092415           
         C38       1.0000    0.24670   0.92330   0.16372   Biso      1.000     C          -0.052875           
         C39       1.0000    0.20140   0.85860   0.12433   Biso      1.000     C          0.356429  
         C40       1.0000    0.21870   0.93630   0.08634   Biso      1.000     C          -0.051628999999999994         
         C41       1.0000    0.15150   0.88150   0.04982   Biso      1.000     C          -0.016701           
         C42       1.0000    0.18380   0.95170   0.01397   Biso      1.000     C          -0.08885  
         C43       1.0000    0.28210   0.07370   0.01430   Biso      1.000     C          -0.094705           
         C44       1.0000    0.20580   0.85700   0.20029   Biso      1.000     C          -0.016937           
         C45       1.0000    0.34860   0.12910   0.05043   Biso      1.000     C          -0.015919           
         C46       1.0000    0.37070   0.12500   0.12616   Biso      1.000     C          0.355501  
         C47       1.0000    0.34440   0.04800   0.16423   Biso      1.000     C          -0.058166999999999996         
         C48       1.0000    0.51960   0.23390   0.20400   Biso      1.000     C          0.616035  
         C49       1.0000    0.09070   0.72700   0.20258   Biso      1.000     C          0.613548  
         C50       1.0000    0.04120   0.75030   0.04681   Biso      1.000     C          0.614788  
         C51       1.0000    0.46420   0.25820   0.04709   Biso      1.000     C          0.6140220000000001  
         C52       1.0000    0.31430   0.06140   0.08687   Biso      1.000     C          -0.055983000000000005         
         C53       1.0000    0.26940   0.91380   0.23667   Biso      1.000     C          -0.086529           
         C54       1.0000    0.37040   0.03430   0.23709   Biso      1.000     C          -0.091913           
         C55       1.0000    0.40760   0.10280   0.20106   Biso      1.000     C          -0.00992  
         C56       1.0000    0.23060   0.08620   0.73667   Biso      1.000     C          -0.087272           
         C57       1.0000    0.25330   0.07670   0.66372   Biso      1.000     C          -0.051902           
         C58       1.0000    0.29860   0.14140   0.62433   Biso      1.000     C          0.35645   
         C59       1.0000    0.28130   0.06370   0.58634   Biso      1.000     C          -0.052142999999999995         
         C60       1.0000    0.34850   0.11850   0.54982   Biso      1.000     C          -0.014899           
         C61       1.0000    0.31620   0.04830   0.51397   Biso      1.000     C          -0.086002           
         C62       1.0000    0.21790   0.92630   0.51430   Biso      1.000     C          -0.092421           
         C63       1.0000    0.15140   0.87090   0.55043   Biso      1.000     C          -0.013237           
         C64       1.0000    0.18570   0.93860   0.58687   Biso      1.000     C          -0.05664299999999999          
         C65       1.0000    0.12930   0.87500   0.62616   Biso      1.000     C          0.355552  
         C66       1.0000    0.15560   0.95200   0.66423   Biso      1.000     C          -0.056947000000000005         
         C67       1.0000    0.98040   0.76610   0.70400   Biso      1.000     C          0.616922  
         C68       1.0000    0.40930   0.27300   0.70258   Biso      1.000     C          0.6137    
         C69       1.0000    0.45880   0.24970   0.54681   Biso      1.000     C          0.6143109999999999  
         C70       1.0000    0.03580   0.74180   0.54709   Biso      1.000     C          0.6138399999999999  
         C71       1.0000    0.62930   0.87500   0.87384   Biso      1.000     C          0.356022  
         C72       1.0000    0.65560   0.95200   0.83577   Biso      1.000     C          -0.056983000000000006         
         Co1       1.0000    0.05326   0.48049   0.25018   Biso      1.000     Co          1.02681   
         Co2       1.0000    0.44674   0.51951   0.75018   Biso      1.000     Co          1.028506  
         Co3       1.0000    0.94674   0.51951   0.74982   Biso      1.000     Co          1.02836   
         Co4       1.0000    0.55326   0.48049   0.24982   Biso      1.000     Co          1.010576  
         Co5       1.0000    0.50000   0.50000   0.50000   Biso      1.000     Co          1.030816  
         Co6       1.0000    0.00000   0.50000   0.00000   Biso      1.000     Co          1.0220040000000001  
         Co7       1.0000    0.00000   0.50000   0.50000   Biso      1.000     Co          1.029755  
         Co8       1.0000    0.50000   0.50000   0.00000   Biso      1.000     Co          1.042824  
         H1        1.0000    0.73150   0.43760   0.04310   Biso      1.000     H          0.455217  
         H2        1.0000    0.75650   0.13000   0.73890   Biso      1.000     H          0.12743800000000002           
         H3        1.0000    0.58620   0.93010   0.73840   Biso      1.000     H          0.129925  
         H4        1.0000    0.28080   0.57280   0.45700   Biso      1.000     H          0.44915   
         H5        1.0000    0.23150   0.43760   0.45690   Biso      1.000     H          0.455971  
         H6        1.0000    0.77370   0.41060   0.20870   Biso      1.000     H          0.44612700000000005           
         H7        1.0000    0.91380   0.06990   0.23840   Biso      1.000     H          0.13114800000000001           
         H8        1.0000    0.80370   0.11880   0.51000   Biso      1.000     H          0.127167  
         H9        1.0000    0.63890   0.91640   0.51050   Biso      1.000     H          0.12738   
         H10       1.0000    0.86110   0.08360   0.01050   Biso      1.000     H          0.128089  
         H11       1.0000    0.78080   0.57280   0.04300   Biso      1.000     H          0.44852   
         H12       1.0000    0.82850   0.54530   0.20590   Biso      1.000     H          0.455492  
         H13       1.0000    0.69630   0.88120   0.01000   Biso      1.000     H          0.12750799999999998           
         H14       1.0000    0.74350   0.87000   0.23890   Biso      1.000     H          0.128761  
         H15       1.0000    0.72630   0.58940   0.70870   Biso      1.000     H          0.446179  
         H16       1.0000    0.32850   0.54530   0.29410   Biso      1.000     H          0.455054  
         H17       1.0000    0.30370   0.11880   0.99000   Biso      1.000     H          0.126468  
         H18       1.0000    0.13890   0.91640   0.98950   Biso      1.000     H          0.12703   
         H19       1.0000    0.24350   0.87000   0.26110   Biso      1.000     H          0.12756900000000002           
         H20       1.0000    0.41380   0.06990   0.26160   Biso      1.000     H          0.13      
         H21       1.0000    0.71920   0.42720   0.54300   Biso      1.000     H          0.44886800000000004           
         H22       1.0000    0.27370   0.41060   0.29130   Biso      1.000     H          0.44576000000000005           
         H23       1.0000    0.76850   0.56240   0.54310   Biso      1.000     H          0.45560100000000003           
         H24       1.0000    0.17150   0.45470   0.79410   Biso      1.000     H          0.455966  
         H25       1.0000    0.19630   0.88120   0.49000   Biso      1.000     H          0.12771   
         H26       1.0000    0.36110   0.08360   0.48950   Biso      1.000     H          0.127978  
         H27       1.0000    0.25650   0.13000   0.76110   Biso      1.000     H          0.128425  
         H28       1.0000    0.08620   0.93010   0.76160   Biso      1.000     H          0.130896  
         H29       1.0000    0.21920   0.42720   0.95700   Biso      1.000     H          0.448334  
         H30       1.0000    0.26850   0.56240   0.95690   Biso      1.000     H          0.454962  
         H31       1.0000    0.22630   0.58940   0.79130   Biso      1.000     H          0.446475  
         H32       1.0000    0.67150   0.45470   0.70590   Biso      1.000     H          0.455563  
         O1        1.0000    0.88010   0.73420   0.55153   Biso      1.000     O          -0.525844           
         O2        1.0000    0.38890   0.33390   0.52821   Biso      1.000     O          -0.587993           
         O3        1.0000    0.60920   0.26540   0.55941   Biso      1.000     O          -0.530241           
         O4        1.0000    0.05600   0.67760   0.71804   Biso      1.000     O          -0.597382           
         O5        1.0000    0.33740   0.36210   0.71745   Biso      1.000     O          -0.595916           
         O6        1.0000    0.82620   0.75360   0.69549   Biso      1.000     O          -0.5297310000000001           
         O7        1.0000    0.10950   0.64820   0.53595   Biso      1.000     O          -0.601614           
         O8        1.0000    0.07120   0.76090   0.62746   Biso      1.000     O          -0.342086           
         O9        1.0000    0.56280   0.28480   0.69334   Biso      1.000     O          -0.5283909999999999           
         O10       1.0000    0.19630   0.51920   0.77842   Biso      1.000     O          -0.8603930000000001           
         O11       1.0000    0.89080   0.73460   0.05941   Biso      1.000     O          -0.531324           
         O12       1.0000    0.16000   0.74160   0.12229   Biso      1.000     O          -0.35180900000000004          
         O13       1.0000    0.42880   0.23910   0.12746   Biso      1.000     O          -0.34138  
         O14       1.0000    0.44400   0.32240   0.21804   Biso      1.000     O          -0.5977520000000001           
         O15       1.0000    0.67380   0.24640   0.19549   Biso      1.000     O          -0.532409           
         O16       1.0000    0.16260   0.63790   0.21745   Biso      1.000     O          -0.5959270000000001           
         O17       1.0000    0.93720   0.71520   0.19334   Biso      1.000     O          -0.5294220000000001           
         O18       1.0000    0.11110   0.66610   0.02821   Biso      1.000     O          -0.590091           
         O19       1.0000    0.61990   0.26580   0.05153   Biso      1.000     O          -0.524792           
         O20       1.0000    0.39050   0.35180   0.03595   Biso      1.000     O          -0.597132           
         O21       1.0000    0.34000   0.25840   0.62229   Biso      1.000     O          -0.351464           
         O22       1.0000    0.74760   0.49460   0.52865   Biso      1.000     O          -0.8598110000000001           
         O23       1.0000    0.24760   0.49460   0.97135   Biso      1.000     O          -0.859619           
         O24       1.0000    0.66260   0.63790   0.28255   Biso      1.000     O          -0.596795           
         O25       1.0000    0.60950   0.64820   0.96405   Biso      1.000     O          -0.598673           
         O26       1.0000    0.30370   0.48080   0.27842   Biso      1.000     O          -0.8582719999999999           
         O27       1.0000    0.66000   0.74160   0.37771   Biso      1.000     O          -0.35110399999999997          
         O28       1.0000    0.92880   0.23910   0.37254   Biso      1.000     O          -0.341478           
         O29       1.0000    0.94400   0.32240   0.28196   Biso      1.000     O          -0.597562           
         O30       1.0000    0.17380   0.24640   0.30451   Biso      1.000     O          -0.530794           
         O31       1.0000    0.43720   0.71520   0.30666   Biso      1.000     O          -0.531609           
         O32       1.0000    0.39080   0.73460   0.44059   Biso      1.000     O          -0.528748           
         O33       1.0000    0.61110   0.66610   0.47179   Biso      1.000     O          -0.58729  
         O34       1.0000    0.11990   0.26580   0.44847   Biso      1.000     O          -0.525125           
         O35       1.0000    0.89050   0.35180   0.46405   Biso      1.000     O          -0.6002609999999999           
         O36       1.0000    0.80370   0.48080   0.22158   Biso      1.000     O          -0.8586959999999999           
         O37       1.0000    0.25240   0.50540   0.47135   Biso      1.000     O          -0.859461           
         O38       1.0000    0.84000   0.25840   0.87771   Biso      1.000     O          -0.351488           
         O39       1.0000    0.57120   0.76090   0.87254   Biso      1.000     O          -0.342393           
         O40       1.0000    0.55600   0.67760   0.78196   Biso      1.000     O          -0.5973109999999999           
         O41       1.0000    0.32620   0.75360   0.80451   Biso      1.000     O          -0.529544           
         O42       1.0000    0.83740   0.36210   0.78255   Biso      1.000     O          -0.5957819999999999           
         O43       1.0000    0.06280   0.28480   0.80666   Biso      1.000     O          -0.528191           
         O44       1.0000    0.10920   0.26540   0.94059   Biso      1.000     O          -0.531805           
         O45       1.0000    0.88890   0.33390   0.97179   Biso      1.000     O          -0.5907   
         O46       1.0000    0.38010   0.73420   0.94847   Biso      1.000     O          -0.523569           
         O47       1.0000    0.69630   0.51920   0.72158   Biso      1.000     O          -0.8600549999999999           
         O48       1.0000    0.75240   0.50540   0.02865   Biso      1.000     O          -0.859049 