
##########################################################################
#               Crystallographic Information Format file
#               Produced by PyCifRW module
#
#  This is a CIF file.  CIF has been adopted by the International
#  Union of Crystallography as the standard for data archiving and
#  transmission.
#
#  For information on this file format, follow the CIF links at
#  http://www.iucr.org
##########################################################################

data_image0

_cell_length_a                          10.672
_cell_length_b                          10.7194
_cell_length_c                          11.9351
_cell_angle_alpha                       70.341
_cell_angle_beta                        77.928
_cell_angle_gamma                       60.8544
_symmetry_space_group_name_H-M          'P 1'
_symmetry_int_tables_number             1
loop_
  _symmetry_equiv_pos_as_xyz
         'x, y, z' 
loop_
  _atom_site_label
  _atom_site_occupancy
  _atom_site_fract_x
  _atom_site_fract_y
  _atom_site_fract_z
  _atom_site_thermal_displace_type
  _atom_site_B_iso_or_equiv
  _atom_site_type_symbol
  _atom_site_charge
         C1        1.0000    0.71630   0.03480   0.64190   Biso      1.000     C          0.635756  
         C2        1.0000    0.81040   0.29000   0.34780   Biso      1.000     C          0.08501399999999999           
         C3        1.0000    0.72390   0.69360   0.25700   Biso      1.000     C          0.575842  
         C4        1.0000    0.07660   0.68190   0.12870   Biso      1.000     C          0.087917  
         C5        1.0000    0.15730   0.53050   0.15470   Biso      1.000     C          -0.144669           
         C6        1.0000    0.27830   0.46910   0.08170   Biso      1.000     C          0.044927999999999996          
         C7        1.0000    0.22810   0.71570   0.96590   Biso      1.000     C          0.088531  
         C8        1.0000    0.37060   0.30540   0.10830   Biso      1.000     C          0.574596  
         C9        1.0000    0.82180   0.02280   0.71690   Biso      1.000     C          0.0011    
         C10       1.0000    0.82710   0.01180   0.83490   Biso      1.000     C          -0.020588           
         C11       1.0000    0.73530   0.99810   0.94470   Biso      1.000     C          0.639     
         C12       1.0000    0.75120   0.43960   0.29100   Biso      1.000     C          -0.142425           
         C13       1.0000    0.05630   0.68660   0.54270   Biso      1.000     C          0.090793  
         C14       1.0000    0.21140   0.46980   0.68040   Biso      1.000     C          0.047914  
         C15       1.0000    0.24880   0.56040   0.70900   Biso      1.000     C          -0.142423           
         C16       1.0000    0.18960   0.71000   0.65220   Biso      1.000     C          0.085016  
         C17       1.0000    0.27610   0.30640   0.74300   Biso      1.000     C          0.575842  
         C18       1.0000    0.92340   0.31810   0.87130   Biso      1.000     C          0.087917  
         C19       1.0000    0.84270   0.46950   0.84530   Biso      1.000     C          -0.144669           
         C20       1.0000    0.72170   0.53090   0.91830   Biso      1.000     C          0.044929000000000004          
         C21       1.0000    0.68740   0.43310   0.01360   Biso      1.000     C          -0.141587           
         C22       1.0000    0.77190   0.28430   0.03410   Biso      1.000     C          0.08853899999999999           
         C23       1.0000    0.62940   0.69460   0.89170   Biso      1.000     C          0.574596  
         C24       1.0000    0.11370   0.53620   0.59470   Biso      1.000     C          -0.150343           
         C25       1.0000    0.78860   0.53020   0.31960   Biso      1.000     C          0.047918  
         C26       1.0000    0.31260   0.56690   0.98640   Biso      1.000     C          -0.14157999999999998          
         C27       1.0000    0.94370   0.31340   0.45730   Biso      1.000     C          0.090793  
         C28       1.0000    0.26470   0.00190   0.05530   Biso      1.000     C          0.639     
         C29       1.0000    0.28370   0.96520   0.35810   Biso      1.000     C          0.635756  
         C30       1.0000    0.17290   0.98820   0.16510   Biso      1.000     C          -0.020589           
         C31       1.0000    0.17820   0.97720   0.28310   Biso      1.000     C          0.001101  
         C32       1.0000    0.88630   0.46380   0.40530   Biso      1.000     C          -0.150344           
         Cu1       1.0000    0.00000   0.00000   0.00000   Biso      1.000     Cu          0.614992  
         Cu2       1.0000    0.00000   0.00000   0.50000   Biso      1.000     Cu          0.607276  
         H1        1.0000    0.01060   0.27080   0.51480   Biso      1.000     H          0.106706  
         H2        1.0000    0.91400   0.52100   0.42850   Biso      1.000     H          0.128175  
         H3        1.0000    0.78110   0.23120   0.32880   Biso      1.000     H          0.09740900000000001           
         H4        1.0000    0.99480   0.72150   0.17690   Biso      1.000     H          0.10450699999999999           
         H5        1.0000    0.13140   0.46920   0.22060   Biso      1.000     H          0.13229200000000002           
         H6        1.0000    0.39340   0.53050   0.93650   Biso      1.000     H          0.133037  
         H7        1.0000    0.25180   0.77930   0.90060   Biso      1.000     H          0.091886  
         H8        1.0000    0.68550   0.47940   0.23310   Biso      1.000     H          0.130546  
         H9        1.0000    0.08600   0.47900   0.57150   Biso      1.000     H          0.128175  
         H10       1.0000    0.31450   0.52060   0.76690   Biso      1.000     H          0.130546  
         H11       1.0000    0.21890   0.76880   0.67120   Biso      1.000     H          0.09740900000000001           
         H12       1.0000    0.00520   0.27850   0.82310   Biso      1.000     H          0.10450699999999999           
         H13       1.0000    0.86860   0.53080   0.77940   Biso      1.000     H          0.13229200000000002           
         H14       1.0000    0.60660   0.46950   0.06350   Biso      1.000     H          0.133037  
         H15       1.0000    0.74820   0.22070   0.09940   Biso      1.000     H          0.091886  
         H16       1.0000    0.98940   0.72920   0.48520   Biso      1.000     H          0.106707  
         N1        1.0000    0.88850   0.22530   0.96360   Biso      1.000     N          -0.187973           
         N2        1.0000    0.09280   0.77340   0.57170   Biso      1.000     N          -0.178344           
         N3        1.0000    0.95240   0.01030   0.84470   Biso      1.000     N          -0.170842           
         N4        1.0000    0.02390   0.01850   0.73870   Biso      1.000     N          -0.067972           
         N5        1.0000    0.94520   0.02390   0.66230   Biso      1.000     N          -0.16659300000000002          
         N6        1.0000    0.11150   0.77470   0.03640   Biso      1.000     N          -0.187972           
         N7        1.0000    0.04760   0.98970   0.15530   Biso      1.000     N          -0.170842           
         N8        1.0000    0.97610   0.98150   0.26130   Biso      1.000     N          -0.067972           
         N9        1.0000    0.05480   0.97610   0.33770   Biso      1.000     N          -0.16659300000000002          
         N10       1.0000    0.90720   0.22660   0.42830   Biso      1.000     N          -0.178344           
         O1        1.0000    0.35010   0.25970   0.83080   Biso      1.000     O          -0.616876           
         O2        1.0000    0.33250   0.21950   0.19250   Biso      1.000     O          -0.626218           
         O3        1.0000    0.26040   0.21890   0.70510   Biso      1.000     O          -0.637556           
         O4        1.0000    0.77680   0.98710   0.04120   Biso      1.000     O          -0.643278           
         O5        1.0000    0.61820   0.99590   0.94370   Biso      1.000     O          -0.6930189999999999           
         O6        1.0000    0.58640   0.07690   0.68080   Biso      1.000     O          -0.69565  
         O7        1.0000    0.76540   0.00820   0.54410   Biso      1.000     O          -0.548083           
         O8        1.0000    0.48630   0.25520   0.04750   Biso      1.000     O          -0.625893           
         O9        1.0000    0.66750   0.78050   0.80750   Biso      1.000     O          -0.626218           
         O10       1.0000    0.73960   0.78110   0.29490   Biso      1.000     O          -0.637556           
         O11       1.0000    0.22320   0.01290   0.95880   Biso      1.000     O          -0.643278           
         O12       1.0000    0.38180   0.00410   0.05630   Biso      1.000     O          -0.6930189999999999           
         O13       1.0000    0.41360   0.92310   0.31920   Biso      1.000     O          -0.69565  
         O14       1.0000    0.23460   0.99180   0.45590   Biso      1.000     O          -0.548083           
         O15       1.0000    0.51370   0.74480   0.95250   Biso      1.000     O          -0.625892           
         O16       1.0000    0.64990   0.74030   0.16920   Biso      1.000     O          -0.616876           
         Tb1       1.0000    0.45062   0.00173   0.83754   Biso      1.000     Tb          2.050814  
         Tb2       1.0000    0.54938   0.99827   0.16246   Biso      1.000     Tb          2.050813 