
##########################################################################
#               Crystallographic Information Format file
#               Produced by PyCifRW module
#
#  This is a CIF file.  CIF has been adopted by the International
#  Union of Crystallography as the standard for data archiving and
#  transmission.
#
#  For information on this file format, follow the CIF links at
#  http://www.iucr.org
##########################################################################

data_image0

_cell_length_a                          13.9318
_cell_length_b                          13.9318
_cell_length_c                          17.7461
_cell_angle_alpha                       113.112
_cell_angle_beta                        113.112
_cell_angle_gamma                       90
_symmetry_space_group_name_H-M          'P 1'
_symmetry_int_tables_number             1
loop_
  _symmetry_equiv_pos_as_xyz
         'x, y, z' 
loop_
  _atom_site_label
  _atom_site_occupancy
  _atom_site_fract_x
  _atom_site_fract_y
  _atom_site_fract_z
  _atom_site_thermal_displace_type
  _atom_site_B_iso_or_equiv
  _atom_site_type_symbol
  _atom_site_charge
         C1        1.0000    0.43312   0.86903   0.14888   Biso      1.000     C          0.49703100000000006           
         C2        1.0000    0.86903   0.21576   0.64888   Biso      1.000     C          0.497353  
         C3        1.0000    0.79792   0.29775   0.37250   Biso      1.000     C          -0.225977           
         C4        1.0000    0.91849   0.16582   0.53564   Biso      1.000     C          0.4926    
         C5        1.0000    0.63097   0.06688   0.35112   Biso      1.000     C          0.49703   
         C6        1.0000    0.70208   0.42525   0.62750   Biso      1.000     C          -0.226394           
         C7        1.0000    0.22015   0.28424   0.35112   Biso      1.000     C          0.498917  
         C8        1.0000    0.11715   0.36982   0.53564   Biso      1.000     C          0.49075699999999994           
         C9        1.0000    0.42542   0.20225   0.62750   Biso      1.000     C          -0.22429000000000002          
         C10       1.0000    0.56688   0.13097   0.85112   Biso      1.000     C          0.49703100000000006           
         C11       1.0000    0.92525   0.20208   0.12750   Biso      1.000     C          -0.226394           
         C12       1.0000    0.63018   0.08151   0.96436   Biso      1.000     C          0.49319399999999997           
         C13       1.0000    0.78424   0.72015   0.85112   Biso      1.000     C          0.49891899999999995           
         C14       1.0000    0.70225   0.92542   0.12750   Biso      1.000     C          -0.22429000000000002          
         C15       1.0000    0.83418   0.88285   0.96436   Biso      1.000     C          0.489569  
         C16       1.0000    0.38285   0.33418   0.46436   Biso      1.000     C          0.489566  
         C17       1.0000    0.07458   0.07475   0.37250   Biso      1.000     C          -0.227023           
         C18       1.0000    0.27985   0.43312   0.64888   Biso      1.000     C          0.49822700000000003           
         C19       1.0000    0.06688   0.22015   0.85112   Biso      1.000     C          0.498226  
         C20       1.0000    0.07475   0.79792   0.87250   Biso      1.000     C          -0.22639299999999998          
         C21       1.0000    0.61715   0.66582   0.53564   Biso      1.000     C          0.489571  
         C22       1.0000    0.57458   0.79775   0.37250   Biso      1.000     C          -0.22428800000000002          
         C23       1.0000    0.77985   0.71576   0.64888   Biso      1.000     C          0.498921  
         C24       1.0000    0.41849   0.86982   0.53564   Biso      1.000     C          0.493195  
         C25       1.0000    0.29792   0.57475   0.37250   Biso      1.000     C          -0.22639299999999998          
         C26       1.0000    0.36903   0.93312   0.64888   Biso      1.000     C          0.497033  
         C27       1.0000    0.08151   0.83418   0.46436   Biso      1.000     C          0.492605  
         C28       1.0000    0.20208   0.70225   0.62750   Biso      1.000     C          -0.225977           
         C29       1.0000    0.13097   0.78424   0.35112   Biso      1.000     C          0.497357  
         C30       1.0000    0.88285   0.63018   0.46436   Biso      1.000     C          0.490762  
         C31       1.0000    0.92542   0.92525   0.62750   Biso      1.000     C          -0.22702199999999997          
         C32       1.0000    0.72015   0.56688   0.35112   Biso      1.000     C          0.49823100000000003           
         C33       1.0000    0.13018   0.38285   0.96436   Biso      1.000     C          0.490759  
         C34       1.0000    0.42525   0.42542   0.12750   Biso      1.000     C          -0.22701999999999997          
         C35       1.0000    0.71576   0.36903   0.14888   Biso      1.000     C          0.497356  
         C36       1.0000    0.79775   0.29792   0.87250   Biso      1.000     C          -0.225978           
         C37       1.0000    0.58151   0.13018   0.46436   Biso      1.000     C          0.493192  
         C38       1.0000    0.93312   0.77985   0.14888   Biso      1.000     C          0.498229  
         C39       1.0000    0.36982   0.91849   0.03564   Biso      1.000     C          0.49319300000000005           
         C40       1.0000    0.21576   0.27985   0.14888   Biso      1.000     C          0.49891899999999995           
         C41       1.0000    0.29775   0.07458   0.87250   Biso      1.000     C          -0.224286           
         C42       1.0000    0.16582   0.11715   0.03564   Biso      1.000     C          0.489566  
         C43       1.0000    0.28424   0.63097   0.85112   Biso      1.000     C          0.497355  
         C44       1.0000    0.66582   0.41849   0.03564   Biso      1.000     C          0.49260299999999996           
         C45       1.0000    0.33418   0.58151   0.96436   Biso      1.000     C          0.492601  
         C46       1.0000    0.20225   0.70208   0.12750   Biso      1.000     C          -0.225975           
         C47       1.0000    0.86982   0.61715   0.03564   Biso      1.000     C          0.49076000000000003           
         C48       1.0000    0.57475   0.57458   0.87250   Biso      1.000     C          -0.227023           
         H1        1.0000    0.35070   0.60990   0.43400   Biso      1.000     H          0.133017  
         H2        1.0000    0.99960   0.78660   0.85460   Biso      1.000     H          0.13011099999999998           
         H3        1.0000    0.10990   0.85070   0.93400   Biso      1.000     H          0.133019  
         H4        1.0000    0.26790   0.13530   0.86800   Biso      1.000     H          0.129672  
         H5        1.0000    0.35500   0.06800   0.85460   Biso      1.000     H          0.12986   
         H6        1.0000    0.32410   0.08330   0.93400   Biso      1.000     H          0.13297799999999999           
         H7        1.0000    0.23210   0.76730   0.13200   Biso      1.000     H          0.130444  
         H8        1.0000    0.14500   0.71340   0.14540   Biso      1.000     H          0.130662  
         H9        1.0000    0.17590   0.64930   0.06600   Biso      1.000     H          0.132664  
         H10       1.0000    0.39990   0.36470   0.13200   Biso      1.000     H          0.131188  
         H11       1.0000    0.50040   0.43200   0.14540   Biso      1.000     H          0.13043   
         H12       1.0000    0.10010   0.73270   0.86800   Biso      1.000     H          0.13082   
         H13       1.0000    0.86470   0.89990   0.63200   Biso      1.000     H          0.131188  
         H14       1.0000    0.93200   0.00040   0.64540   Biso      1.000     H          0.130431  
         H15       1.0000    0.91670   0.89010   0.56600   Biso      1.000     H          0.133149  
         H16       1.0000    0.26730   0.73210   0.63200   Biso      1.000     H          0.130443  
         H17       1.0000    0.21340   0.64500   0.64540   Biso      1.000     H          0.130662  
         H18       1.0000    0.14930   0.67590   0.56600   Biso      1.000     H          0.132663  
         H19       1.0000    0.23270   0.60010   0.36800   Biso      1.000     H          0.13081900000000002           
         H20       1.0000    0.28660   0.49960   0.35460   Biso      1.000     H          0.13011   
         H21       1.0000    0.63530   0.76790   0.36800   Biso      1.000     H          0.129673  
         H22       1.0000    0.39010   0.41670   0.06600   Biso      1.000     H          0.133148  
         H23       1.0000    0.76730   0.39990   0.63200   Biso      1.000     H          0.13081800000000002           
         H24       1.0000    0.13530   0.10010   0.36800   Biso      1.000     H          0.131188  
         H25       1.0000    0.56800   0.85500   0.35460   Biso      1.000     H          0.12986099999999998           
         H26       1.0000    0.71340   0.50040   0.64540   Biso      1.000     H          0.130109  
         H27       1.0000    0.64930   0.39010   0.56600   Biso      1.000     H          0.133017  
         H28       1.0000    0.36470   0.23210   0.63200   Biso      1.000     H          0.129671  
         H29       1.0000    0.43200   0.14500   0.64540   Biso      1.000     H          0.129859  
         H30       1.0000    0.41670   0.17590   0.56600   Biso      1.000     H          0.13297799999999999           
         H31       1.0000    0.89990   0.26730   0.13200   Biso      1.000     H          0.13081900000000002           
         H32       1.0000    0.00040   0.21340   0.14540   Biso      1.000     H          0.13011   
         H33       1.0000    0.89010   0.14930   0.06600   Biso      1.000     H          0.133017  
         H34       1.0000    0.73210   0.86470   0.13200   Biso      1.000     H          0.129673  
         H35       1.0000    0.85070   0.32410   0.43400   Biso      1.000     H          0.132663  
         H36       1.0000    0.64500   0.93200   0.14540   Biso      1.000     H          0.12986099999999998           
         H37       1.0000    0.76790   0.23270   0.86800   Biso      1.000     H          0.130442  
         H38       1.0000    0.85500   0.28660   0.85460   Biso      1.000     H          0.130662  
         H39       1.0000    0.82410   0.35070   0.93400   Biso      1.000     H          0.132662  
         H40       1.0000    0.60010   0.63530   0.86800   Biso      1.000     H          0.131188  
         H41       1.0000    0.49960   0.56800   0.85460   Biso      1.000     H          0.130431  
         H42       1.0000    0.60990   0.58330   0.93400   Biso      1.000     H          0.133148  
         H43       1.0000    0.78660   0.35500   0.35460   Biso      1.000     H          0.13066   
         H44       1.0000    0.73270   0.26790   0.36800   Biso      1.000     H          0.130442  
         H45       1.0000    0.08330   0.10990   0.43400   Biso      1.000     H          0.133149  
         H46       1.0000    0.06800   0.99960   0.35460   Biso      1.000     H          0.130429  
         H47       1.0000    0.67590   0.91670   0.06600   Biso      1.000     H          0.13297799999999999           
         H48       1.0000    0.58330   0.82410   0.43400   Biso      1.000     H          0.13297799999999999           
         N1        1.0000    0.32363   0.90548   0.96254   Biso      1.000     N          -0.551976           
         N2        1.0000    0.86983   0.73450   0.67922   Biso      1.000     N          -0.574915           
         N3        1.0000    0.44294   0.36109   0.53746   Biso      1.000     N          -0.548656           
         N4        1.0000    0.57254   0.05644   0.87848   Biso      1.000     N          -0.419559           
         N5        1.0000    0.55528   0.19061   0.82078   Biso      1.000     N          -0.573662           
         N6        1.0000    0.67637   0.09452   0.03746   Biso      1.000     N          -0.551975           
         N7        1.0000    0.80594   0.82204   0.87848   Biso      1.000     N          -0.41898599999999997          
         N8        1.0000    0.76550   0.63017   0.82078   Biso      1.000     N          -0.574911           
         N9        1.0000    0.86109   0.94294   0.03746   Biso      1.000     N          -0.548652           
         N10       1.0000    0.69406   0.44356   0.12152   Biso      1.000     N          -0.41969300000000004          
         N11       1.0000    0.73450   0.30939   0.17922   Biso      1.000     N          -0.5737220000000001           
         N12       1.0000    0.13017   0.26550   0.32078   Biso      1.000     N          -0.574919           
         N13       1.0000    0.63891   0.40548   0.96254   Biso      1.000     N          -0.551146           
         N14       1.0000    0.94472   0.86983   0.17922   Biso      1.000     N          -0.5741149999999999           
         N15       1.0000    0.82363   0.55706   0.96254   Biso      1.000     N          -0.549521           
         N16       1.0000    0.05528   0.13017   0.82078   Biso      1.000     N          -0.574114           
         N17       1.0000    0.07254   0.32204   0.87848   Biso      1.000     N          -0.419416           
         N18       1.0000    0.36109   0.59452   0.03746   Biso      1.000     N          -0.551149           
         N19       1.0000    0.26550   0.69061   0.82078   Biso      1.000     N          -0.573725           
         N20       1.0000    0.30594   0.55644   0.87848   Biso      1.000     N          -0.41969399999999996          
         N21       1.0000    0.13891   0.05706   0.96254   Biso      1.000     N          -0.548651           
         N22       1.0000    0.23450   0.36983   0.17922   Biso      1.000     N          -0.574917           
         N23       1.0000    0.92746   0.67796   0.12152   Biso      1.000     N          -0.419415           
         N24       1.0000    0.55706   0.63891   0.46254   Biso      1.000     N          -0.548654           
         N25       1.0000    0.32204   0.30594   0.37848   Biso      1.000     N          -0.41899  
         N26       1.0000    0.55644   0.07254   0.37848   Biso      1.000     N          -0.41956400000000005          
         N27       1.0000    0.67796   0.69406   0.62152   Biso      1.000     N          -0.41898599999999997          
         N28       1.0000    0.40548   0.82363   0.46254   Biso      1.000     N          -0.551975           
         N29       1.0000    0.30939   0.94472   0.67922   Biso      1.000     N          -0.5736640000000001           
         N30       1.0000    0.44356   0.92746   0.62152   Biso      1.000     N          -0.41956000000000004          
         N31       1.0000    0.09452   0.86109   0.53746   Biso      1.000     N          -0.551147           
         N32       1.0000    0.19061   0.76550   0.32078   Biso      1.000     N          -0.5737220000000001           
         N33       1.0000    0.44472   0.80939   0.17922   Biso      1.000     N          -0.5736640000000001           
         N34       1.0000    0.42746   0.94356   0.12152   Biso      1.000     N          -0.419559           
         N35       1.0000    0.05644   0.80594   0.37848   Biso      1.000     N          -0.419692           
         N36       1.0000    0.69061   0.05528   0.32078   Biso      1.000     N          -0.5736680000000001           
         N37       1.0000    0.94294   0.67637   0.53746   Biso      1.000     N          -0.5495270000000001           
         N38       1.0000    0.19406   0.17796   0.12152   Biso      1.000     N          -0.418988           
         N39       1.0000    0.82204   0.57254   0.37848   Biso      1.000     N          -0.419417           
         N40       1.0000    0.17637   0.44294   0.03746   Biso      1.000     N          -0.549528           
         N41       1.0000    0.17796   0.42746   0.62152   Biso      1.000     N          -0.419421           
         N42       1.0000    0.36983   0.44472   0.67922   Biso      1.000     N          -0.574121           
         N43       1.0000    0.05706   0.32363   0.46254   Biso      1.000     N          -0.54953  
         N44       1.0000    0.94356   0.19406   0.62152   Biso      1.000     N          -0.419699           
         N45       1.0000    0.80939   0.23450   0.67922   Biso      1.000     N          -0.5737270000000001           
         N46       1.0000    0.90548   0.13891   0.46254   Biso      1.000     N          -0.5511510000000001           
         N47       1.0000    0.63017   0.55528   0.32078   Biso      1.000     N          -0.574116           
         N48       1.0000    0.59452   0.17637   0.53746   Biso      1.000     N          -0.551978           
         Ni1       1.0000    0.74782   0.48278   0.82342   Biso      1.000     Ni          0.878934  
         Ni2       1.0000    0.07560   0.98278   0.82342   Biso      1.000     Ni          0.878901  
         Ni3       1.0000    0.42440   0.65936   0.17658   Biso      1.000     Ni          0.8801059999999999  
         Ni4       1.0000    0.25218   0.51722   0.17658   Biso      1.000     Ni          0.878948  
         Ni5       1.0000    0.01722   0.75218   0.67658   Biso      1.000     Ni          0.878949  
         Ni6       1.0000    0.15936   0.92440   0.67658   Biso      1.000     Ni          0.8801100000000001  
         Ni7       1.0000    0.34064   0.74782   0.32342   Biso      1.000     Ni          0.8800819999999999  
         Ni8       1.0000    0.48278   0.57560   0.32342   Biso      1.000     Ni          0.878916  
         Ni9       1.0000    0.57560   0.34064   0.82342   Biso      1.000     Ni          0.8801030000000001  
         Ni10      1.0000    0.92440   0.01722   0.17658   Biso      1.000     Ni          0.878914  
         Ni11      1.0000    0.75218   0.15936   0.17658   Biso      1.000     Ni          0.880083  
         Ni12      1.0000    0.24782   0.84064   0.82342   Biso      1.000     Ni          0.880081  
         Ni13      1.0000    0.51722   0.42440   0.67658   Biso      1.000     Ni          0.8789129999999999  
         Ni14      1.0000    0.98278   0.24782   0.32342   Biso      1.000     Ni          0.878942  
         Ni15      1.0000    0.84064   0.07560   0.32342   Biso      1.000     Ni          0.880108  
         Ni16      1.0000    0.65936   0.25218   0.67658   Biso      1.000     Ni          0.880084  
         O1        1.0000    0.40347   0.51840   0.18524   Biso      1.000     O          -0.49268500000000004          
         O2        1.0000    0.16684   0.78177   0.68524   Biso      1.000     O          -0.49308500000000005          
         O3        1.0000    0.33316   0.59653   0.31476   Biso      1.000     O          -0.49240600000000007          
         O4        1.0000    0.48160   0.71823   0.31476   Biso      1.000     O          -0.49345200000000006          
         O5        1.0000    0.28177   0.66684   0.18524   Biso      1.000     O          -0.493088           
         O6        1.0000    0.01840   0.90347   0.68524   Biso      1.000     O          -0.492679           
         O7        1.0000    0.98160   0.09653   0.31476   Biso      1.000     O          -0.49268100000000004          
         O8        1.0000    0.83316   0.21823   0.31476   Biso      1.000     O          -0.493084           
         O9        1.0000    0.66684   0.40347   0.68524   Biso      1.000     O          -0.49240600000000007          
         O10       1.0000    0.51840   0.28177   0.68524   Biso      1.000     O          -0.49344899999999997          
         O11       1.0000    0.90347   0.16684   0.18524   Biso      1.000     O          -0.49240900000000004          
         O12       1.0000    0.78177   0.01840   0.18524   Biso      1.000     O          -0.493454           
         O13       1.0000    0.71823   0.33316   0.81476   Biso      1.000     O          -0.493084           
         O14       1.0000    0.59653   0.48160   0.81476   Biso      1.000     O          -0.49268100000000004          
         O15       1.0000    0.21823   0.98160   0.81476   Biso      1.000     O          -0.493454           
         O16       1.0000    0.09653   0.83316   0.81476   Biso      1.000     O          -0.492407 