
##########################################################################
#               Crystallographic Information Format file
#               Produced by PyCifRW module
#
#  This is a CIF file.  CIF has been adopted by the International
#  Union of Crystallography as the standard for data archiving and
#  transmission.
#
#  For information on this file format, follow the CIF links at
#  http://www.iucr.org
##########################################################################

data_image0

_cell_length_a                          18.8306
_cell_length_b                          18.8306
_cell_length_c                          20.968
_cell_angle_alpha                       63.3184
_cell_angle_beta                        63.3184
_cell_angle_gamma                       60
_symmetry_space_group_name_H-M          'P 1'
_symmetry_int_tables_number             1
loop_
  _symmetry_equiv_pos_as_xyz
         'x, y, z' 
loop_
  _atom_site_label
  _atom_site_occupancy
  _atom_site_fract_x
  _atom_site_fract_y
  _atom_site_fract_z
  _atom_site_thermal_displace_type
  _atom_site_B_iso_or_equiv
  _atom_site_type_symbol
  _atom_site_charge
         C1        1.0000    0.65711   0.92475   0.94432   Biso      1.000     C          0.615711  
         C2        1.0000    0.49852   0.04475   0.53962   Biso      1.000     C          -0.14461  
         C3        1.0000    0.46512   0.91384   0.83524   Biso      1.000     C          -0.14235699999999998          
         C4        1.0000    0.46752   0.87739   0.90826   Biso      1.000     C          -0.008602           
         C5        1.0000    0.47382   0.92475   0.94432   Biso      1.000     C          0.614258  
         C6        1.0000    0.04475   0.91711   0.53962   Biso      1.000     C          -0.146208           
         C7        1.0000    0.91384   0.78580   0.83524   Biso      1.000     C          -0.142805           
         C8        1.0000    0.87739   0.74683   0.90826   Biso      1.000     C          -0.013306           
         C9        1.0000    0.92475   0.65711   0.94432   Biso      1.000     C          0.619726  
         C10       1.0000    0.08289   0.95525   0.46038   Biso      1.000     C          -0.146144           
         C11       1.0000    0.21420   0.08616   0.16476   Biso      1.000     C          -0.143586           
         C12       1.0000    0.25317   0.12261   0.09174   Biso      1.000     C          -0.009653           
         C13       1.0000    0.34289   0.07525   0.05568   Biso      1.000     C          0.615715  
         C14       1.0000    0.50148   0.08289   0.46038   Biso      1.000     C          -0.14663199999999998          
         C15       1.0000    0.53488   0.21420   0.16476   Biso      1.000     C          -0.142298           
         C16       1.0000    0.53248   0.25317   0.09174   Biso      1.000     C          -0.012353           
         C17       1.0000    0.65711   0.47382   0.94432   Biso      1.000     C          0.620582  
         C18       1.0000    0.74683   0.46752   0.90826   Biso      1.000     C          -0.012707           
         C19       1.0000    0.78580   0.46512   0.83524   Biso      1.000     C          -0.142354           
         C20       1.0000    0.91711   0.49852   0.53962   Biso      1.000     C          -0.14666400000000002          
         C21       1.0000    0.95525   0.08289   0.46038   Biso      1.000     C          -0.146206           
         C22       1.0000    0.08616   0.21420   0.16476   Biso      1.000     C          -0.142824           
         C23       1.0000    0.12261   0.25317   0.09174   Biso      1.000     C          -0.013269           
         C24       1.0000    0.07525   0.34289   0.05568   Biso      1.000     C          0.6197020000000001  
         C25       1.0000    0.91711   0.04475   0.53962   Biso      1.000     C          -0.146146           
         C26       1.0000    0.78580   0.91384   0.83524   Biso      1.000     C          -0.14358900000000002          
         C27       1.0000    0.74683   0.87739   0.90826   Biso      1.000     C          -0.009646           
         C28       1.0000    0.52618   0.34289   0.05568   Biso      1.000     C          0.620591  
         C29       1.0000    0.53488   0.08616   0.16476   Biso      1.000     C          -0.142354           
         C30       1.0000    0.46512   0.78580   0.83524   Biso      1.000     C          -0.14233099999999999          
         C31       1.0000    0.46752   0.74683   0.90826   Biso      1.000     C          -0.012258           
         C32       1.0000    0.47382   0.65711   0.94432   Biso      1.000     C          0.620567  
         C33       1.0000    0.04475   0.49852   0.53962   Biso      1.000     C          -0.144706           
         C34       1.0000    0.91384   0.46512   0.83524   Biso      1.000     C          -0.14163599999999998          
         C35       1.0000    0.87739   0.46752   0.90826   Biso      1.000     C          -0.012692           
         C36       1.0000    0.92475   0.47382   0.94432   Biso      1.000     C          0.618254  
         C37       1.0000    0.49852   0.91711   0.53962   Biso      1.000     C          -0.14662999999999998          
         C38       1.0000    0.95525   0.50148   0.46038   Biso      1.000     C          -0.144705           
         C39       1.0000    0.08616   0.53488   0.16476   Biso      1.000     C          -0.141651           
         C40       1.0000    0.12261   0.53248   0.09174   Biso      1.000     C          -0.012604           
         C41       1.0000    0.03480   0.03480   0.42279   Biso      1.000     C          0.154941  
         C42       1.0000    0.79449   0.79448   0.94309   Biso      1.000     C          -0.112159           
         C43       1.0000    0.86942   0.86942   0.79891   Biso      1.000     C          0.158201  
         C44       1.0000    0.90521   0.90521   0.72217   Biso      1.000     C          -0.11235  
         C45       1.0000    0.92979   0.92979   0.65581   Biso      1.000     C          -0.109625           
         C46       1.0000    0.96520   0.96520   0.57721   Biso      1.000     C          0.154932  
         C47       1.0000    0.46794   0.79449   0.94309   Biso      1.000     C          -0.11218900000000001          
         C48       1.0000    0.07021   0.07021   0.34419   Biso      1.000     C          -0.10971500000000001          
         C49       1.0000    0.46225   0.86942   0.79891   Biso      1.000     C          0.156195  
         C50       1.0000    0.48461   0.92979   0.65581   Biso      1.000     C          -0.10766700000000001          
         C51       1.0000    0.49239   0.96520   0.57721   Biso      1.000     C          0.15376099999999998           
         C52       1.0000    0.79448   0.46794   0.94309   Biso      1.000     C          -0.111325           
         C53       1.0000    0.86942   0.46225   0.79891   Biso      1.000     C          0.155877  
         C54       1.0000    0.90521   0.46741   0.72217   Biso      1.000     C          -0.11370899999999999          
         C55       1.0000    0.92979   0.48461   0.65581   Biso      1.000     C          -0.107876           
         C56       1.0000    0.96520   0.49239   0.57721   Biso      1.000     C          0.153793  
         C57       1.0000    0.46741   0.90521   0.72217   Biso      1.000     C          -0.11353699999999999          
         C58       1.0000    0.52618   0.07525   0.05568   Biso      1.000     C          0.614252  
         C59       1.0000    0.09479   0.09479   0.27783   Biso      1.000     C          -0.112257           
         C60       1.0000    0.20552   0.20552   0.05690   Biso      1.000     C          -0.11223699999999999          
         C61       1.0000    0.07525   0.52618   0.05568   Biso      1.000     C          0.618242  
         C62       1.0000    0.50148   0.95525   0.46038   Biso      1.000     C          -0.144612           
         C63       1.0000    0.34289   0.52618   0.05568   Biso      1.000     C          0.6205579999999999  
         C64       1.0000    0.25317   0.53248   0.09174   Biso      1.000     C          -0.012653           
         C65       1.0000    0.21420   0.53488   0.16476   Biso      1.000     C          -0.14238399999999998          
         C66       1.0000    0.08289   0.50148   0.46038   Biso      1.000     C          -0.14666300000000002          
         C67       1.0000    0.20551   0.53206   0.05691   Biso      1.000     C          -0.111446           
         C68       1.0000    0.13058   0.13058   0.20109   Biso      1.000     C          0.15820499999999998           
         C69       1.0000    0.13058   0.53775   0.20109   Biso      1.000     C          0.155872  
         C70       1.0000    0.07021   0.51539   0.34419   Biso      1.000     C          -0.107966           
         C71       1.0000    0.03480   0.50761   0.42279   Biso      1.000     C          0.153804  
         C72       1.0000    0.53206   0.20552   0.05690   Biso      1.000     C          -0.11208399999999999          
         C73       1.0000    0.53775   0.13058   0.20109   Biso      1.000     C          0.15621300000000002           
         C74       1.0000    0.53259   0.09479   0.27783   Biso      1.000     C          -0.11363  
         C75       1.0000    0.51539   0.07021   0.34419   Biso      1.000     C          -0.107571           
         C76       1.0000    0.50761   0.03480   0.42279   Biso      1.000     C          0.153747  
         C77       1.0000    0.09479   0.53259   0.27783   Biso      1.000     C          -0.113621           
         C78       1.0000    0.53248   0.12261   0.09174   Biso      1.000     C          -0.008617           
         Cu1       1.0000    0.06586   0.49792   0.93830   Biso      1.000     Cu          0.8690100000000001  
         Cu2       1.0000    0.49792   0.49792   0.93830   Biso      1.000     Cu          0.86741   
         Cu3       1.0000    0.49792   0.06586   0.93830   Biso      1.000     Cu          0.836799  
         Cu4       1.0000    0.93414   0.50208   0.06170   Biso      1.000     Cu          0.869015  
         Cu5       1.0000    0.50208   0.93414   0.06170   Biso      1.000     Cu          0.8368040000000001  
         Cu6       1.0000    0.50208   0.50208   0.06170   Biso      1.000     Cu          0.867417  
         H1        1.0000    0.76950   0.46850   0.99250   Biso      1.000     H          0.126864  
         H2        1.0000    0.50080   0.07390   0.56410   Biso      1.000     H          0.127751  
         H3        1.0000    0.46540   0.96880   0.81010   Biso      1.000     H          0.132992  
         H4        1.0000    0.07390   0.86120   0.56410   Biso      1.000     H          0.12801600000000002           
         H5        1.0000    0.96880   0.75570   0.81010   Biso      1.000     H          0.132773  
         H6        1.0000    0.49920   0.13880   0.43590   Biso      1.000     H          0.128137  
         H7        1.0000    0.24430   0.03120   0.18990   Biso      1.000     H          0.133123  
         H8        1.0000    0.75570   0.46540   0.81010   Biso      1.000     H          0.132665  
         H9        1.0000    0.53460   0.24430   0.18990   Biso      1.000     H          0.132718  
         H10       1.0000    0.92610   0.49920   0.43590   Biso      1.000     H          0.127687  
         H11       1.0000    0.13880   0.92610   0.43590   Biso      1.000     H          0.12806700000000001           
         H12       1.0000    0.86120   0.50080   0.56410   Biso      1.000     H          0.12812300000000001           
         H13       1.0000    0.03120   0.53460   0.18990   Biso      1.000     H          0.132598  
         H14       1.0000    0.07390   0.50080   0.56410   Biso      1.000     H          0.127687  
         H15       1.0000    0.96880   0.46540   0.81010   Biso      1.000     H          0.132602  
         H16       1.0000    0.46850   0.76950   0.99250   Biso      1.000     H          0.127236  
         H17       1.0000    0.76950   0.76950   0.99250   Biso      1.000     H          0.128075  
         H18       1.0000    0.23050   0.23050   0.00750   Biso      1.000     H          0.128122  
         H19       1.0000    0.23050   0.53150   0.00750   Biso      1.000     H          0.12691   
         H20       1.0000    0.13880   0.49920   0.43590   Biso      1.000     H          0.128124  
         H21       1.0000    0.24430   0.53460   0.18990   Biso      1.000     H          0.132669  
         H22       1.0000    0.53150   0.23050   0.00750   Biso      1.000     H          0.127163  
         H23       1.0000    0.53460   0.03120   0.18990   Biso      1.000     H          0.132998  
         H24       1.0000    0.92610   0.13880   0.43590   Biso      1.000     H          0.12801600000000002           
         H25       1.0000    0.03120   0.24430   0.18990   Biso      1.000     H          0.13278199999999998           
         H26       1.0000    0.86120   0.07390   0.56410   Biso      1.000     H          0.128066  
         H27       1.0000    0.75570   0.96880   0.81010   Biso      1.000     H          0.13312000000000002           
         H28       1.0000    0.50080   0.86120   0.56410   Biso      1.000     H          0.128137  
         H29       1.0000    0.49920   0.92610   0.43590   Biso      1.000     H          0.127751  
         H30       1.0000    0.46540   0.75570   0.81010   Biso      1.000     H          0.132715  
         O1        1.0000    0.88547   0.48013   0.00978   Biso      1.000     O          -0.537036           
         O2        1.0000    0.47593   0.62080   0.90739   Biso      1.000     O          -0.529395           
         O3        1.0000    0.48013   0.62462   0.00978   Biso      1.000     O          -0.536582           
         O4        1.0000    0.62080   0.99588   0.90739   Biso      1.000     O          -0.5212319999999999           
         O5        1.0000    0.11453   0.37538   0.99022   Biso      1.000     O          -0.5362819999999999           
         O6        1.0000    0.00412   0.37920   0.09261   Biso      1.000     O          -0.528866           
         O7        1.0000    0.52407   0.00412   0.09261   Biso      1.000     O          -0.5195770000000001           
         O8        1.0000    0.99588   0.47593   0.90739   Biso      1.000     O          -0.5272319999999999           
         O9        1.0000    0.51987   0.11453   0.99022   Biso      1.000     O          -0.5301600000000001           
         O10       1.0000    0.62462   0.88547   0.00978   Biso      1.000     O          -0.5296420000000001           
         O11       1.0000    0.62462   0.48013   0.00978   Biso      1.000     O          -0.536792           
         O12       1.0000    0.51987   0.37538   0.99022   Biso      1.000     O          -0.536572           
         O13       1.0000    0.48013   0.88547   0.00978   Biso      1.000     O          -0.530166           
         O14       1.0000    0.47593   0.99588   0.90739   Biso      1.000     O          -0.51958  
         O15       1.0000    0.88547   0.62462   0.00978   Biso      1.000     O          -0.536293           
         O16       1.0000    0.99588   0.62080   0.90739   Biso      1.000     O          -0.52887  
         O17       1.0000    0.37538   0.11453   0.99022   Biso      1.000     O          -0.529636           
         O18       1.0000    0.37920   0.00412   0.09261   Biso      1.000     O          -0.521233           
         O19       1.0000    0.52407   0.37920   0.09261   Biso      1.000     O          -0.529396           
         O20       1.0000    0.11453   0.51987   0.99022   Biso      1.000     O          -0.537028           
         O21       1.0000    0.00412   0.52407   0.09261   Biso      1.000     O          -0.5272359999999999           
         O22       1.0000    0.37920   0.52407   0.09261   Biso      1.000     O          -0.529414           
         O23       1.0000    0.62080   0.47593   0.90739   Biso      1.000     O          -0.529417           
         O24       1.0000    0.37538   0.51987   0.99022   Biso      1.000     O          -0.53679 