
##########################################################################
#               Crystallographic Information Format file
#               Produced by PyCifRW module
#
#  This is a CIF file.  CIF has been adopted by the International
#  Union of Crystallography as the standard for data archiving and
#  transmission.
#
#  For information on this file format, follow the CIF links at
#  http://www.iucr.org
##########################################################################

data_image0

_cell_length_a                          8.1881
_cell_length_b                          16.5888
_cell_length_c                          26.7362
_cell_angle_alpha                       90
_cell_angle_beta                        90
_cell_angle_gamma                       100.939
_symmetry_space_group_name_H-M          'P 1'
_symmetry_int_tables_number             1
loop_
  _symmetry_equiv_pos_as_xyz
         'x, y, z' 
loop_
  _atom_site_label
  _atom_site_occupancy
  _atom_site_fract_x
  _atom_site_fract_y
  _atom_site_fract_z
  _atom_site_thermal_displace_type
  _atom_site_B_iso_or_equiv
  _atom_site_type_symbol
  _atom_site_charge
         C1        1.0000    0.58080   0.99690   0.85580   Biso      1.000     C          -0.216735           
         C2        1.0000    0.51830   0.43560   0.31260   Biso      1.000     C          -0.117413           
         C3        1.0000    0.56390   0.51750   0.28740   Biso      1.000     C          -0.220545           
         C4        1.0000    0.50710   0.58460   0.31840   Biso      1.000     C          -0.087914           
         C5        1.0000    0.52860   0.51030   0.39500   Biso      1.000     C          -0.084759           
         C6        1.0000    0.58520   0.44150   0.36660   Biso      1.000     C          -0.214976           
         C7        1.0000    0.67740   0.65400   0.38770   Biso      1.000     C          0.497064  
         C8        1.0000    0.89000   0.00790   0.29860   Biso      1.000     C          -0.120738           
         C9        1.0000    0.91920   0.00310   0.35580   Biso      1.000     C          -0.216735           
         C10       1.0000    0.98310   0.92370   0.36960   Biso      1.000     C          -0.085961           
         C11       1.0000    0.82360   0.78110   0.37850   Biso      1.000     C          0.484536  
         C12       1.0000    0.05040   0.71710   0.65230   Biso      1.000     C          0.679306  
         C13       1.0000    0.82970   0.85250   0.29700   Biso      1.000     C          -0.086638           
         C14       1.0000    0.76880   0.93020   0.28140   Biso      1.000     C          -0.220418           
         C15       1.0000    0.04180   0.70080   0.59540   Biso      1.000     C          -0.122279           
         C16       1.0000    0.88480   0.64130   0.57740   Biso      1.000     C          -0.227101           
         C17       1.0000    0.04930   0.78240   0.56810   Biso      1.000     C          -0.221072           
         C18       1.0000    0.04990   0.77030   0.51160   Biso      1.000     C          -0.084861           
         C19       1.0000    0.83990   0.08400   0.28420   Biso      1.000     C          0.671389  
         C20       1.0000    0.57780   0.36940   0.28510   Biso      1.000     C          0.665582  
         C21       1.0000    0.60970   0.37080   0.02210   Biso      1.000     C          -0.086684           
         C22       1.0000    0.45010   0.22970   0.01160   Biso      1.000     C          -0.084861           
         C23       1.0000    0.92220   0.63060   0.78510   Biso      1.000     C          0.665582  
         C24       1.0000    0.66010   0.91600   0.78420   Biso      1.000     C          0.671389  
         C25       1.0000    0.98170   0.56440   0.81260   Biso      1.000     C          -0.117413           
         C26       1.0000    0.93610   0.48250   0.78740   Biso      1.000     C          -0.220545           
         C27       1.0000    0.99290   0.41540   0.81840   Biso      1.000     C          -0.087914           
         C28       1.0000    0.97140   0.48970   0.89500   Biso      1.000     C          -0.084759           
         C29       1.0000    0.91480   0.55850   0.86660   Biso      1.000     C          -0.214976           
         C30       1.0000    0.82260   0.34600   0.88770   Biso      1.000     C          0.497064  
         C31       1.0000    0.89030   0.62920   0.52210   Biso      1.000     C          -0.086684           
         C32       1.0000    0.61000   0.99210   0.79860   Biso      1.000     C          -0.120738           
         C33       1.0000    0.67640   0.21890   0.87850   Biso      1.000     C          0.484536  
         C34       1.0000    0.44960   0.28290   0.15230   Biso      1.000     C          0.679306  
         C35       1.0000    0.67030   0.14750   0.79700   Biso      1.000     C          -0.086638           
         C36       1.0000    0.73120   0.06980   0.78140   Biso      1.000     C          -0.220418           
         C37       1.0000    0.66230   0.28780   0.94980   Biso      1.000     C          0.486421  
         C38       1.0000    0.45820   0.29920   0.09540   Biso      1.000     C          -0.122279           
         C39       1.0000    0.61520   0.35870   0.07740   Biso      1.000     C          -0.227101           
         C40       1.0000    0.45070   0.21760   0.06810   Biso      1.000     C          -0.221072           
         C41       1.0000    0.51690   0.07630   0.86960   Biso      1.000     C          -0.085961           
         C42       1.0000    0.07780   0.36940   0.21490   Biso      1.000     C          0.665582  
         C43       1.0000    0.83770   0.71220   0.44980   Biso      1.000     C          0.486421  
         C44       1.0000    0.01830   0.43560   0.18740   Biso      1.000     C          -0.117413           
         C45       1.0000    0.43610   0.48250   0.71260   Biso      1.000     C          -0.220545           
         C46       1.0000    0.49290   0.41540   0.68160   Biso      1.000     C          -0.087914           
         C47       1.0000    0.47140   0.48970   0.60500   Biso      1.000     C          -0.084759           
         C48       1.0000    0.33990   0.08400   0.21580   Biso      1.000     C          0.671389  
         C49       1.0000    0.32260   0.34600   0.61230   Biso      1.000     C          0.497064  
         C50       1.0000    0.11000   0.99210   0.70140   Biso      1.000     C          -0.120738           
         C51       1.0000    0.08080   0.99690   0.64420   Biso      1.000     C          -0.216735           
         C52       1.0000    0.01690   0.07630   0.63040   Biso      1.000     C          -0.085961           
         C53       1.0000    0.48170   0.56440   0.68740   Biso      1.000     C          -0.117414           
         C54       1.0000    0.17640   0.21890   0.62150   Biso      1.000     C          0.484536  
         C55       1.0000    0.17030   0.14750   0.70300   Biso      1.000     C          -0.086638           
         C56       1.0000    0.23120   0.06980   0.71860   Biso      1.000     C          -0.220418           
         C57       1.0000    0.16230   0.28780   0.55020   Biso      1.000     C          0.48642   
         C58       1.0000    0.95820   0.29920   0.40460   Biso      1.000     C          -0.122279           
         C59       1.0000    0.11520   0.35870   0.42260   Biso      1.000     C          -0.227101           
         C60       1.0000    0.95070   0.21760   0.43190   Biso      1.000     C          -0.221072           
         C61       1.0000    0.95010   0.22970   0.48840   Biso      1.000     C          -0.084861           
         C62       1.0000    0.10970   0.37080   0.47790   Biso      1.000     C          -0.086684           
         C63       1.0000    0.94960   0.28290   0.34770   Biso      1.000     C          0.679306  
         C64       1.0000    0.16010   0.91600   0.71580   Biso      1.000     C          0.671389  
         C65       1.0000    0.41480   0.55850   0.63340   Biso      1.000     C          -0.214976           
         C66       1.0000    0.39030   0.62920   0.97790   Biso      1.000     C          -0.086684           
         C67       1.0000    0.06390   0.51750   0.21260   Biso      1.000     C          -0.220545           
         C68       1.0000    0.00710   0.58460   0.18160   Biso      1.000     C          -0.087914           
         C69       1.0000    0.02860   0.51030   0.10500   Biso      1.000     C          -0.084759           
         C70       1.0000    0.42220   0.63060   0.71490   Biso      1.000     C          0.665582  
         C71       1.0000    0.17740   0.65400   0.11230   Biso      1.000     C          0.497064  
         C72       1.0000    0.39000   0.00790   0.20140   Biso      1.000     C          -0.120738           
         C73       1.0000    0.41920   0.00310   0.14420   Biso      1.000     C          -0.216734           
         C74       1.0000    0.48310   0.92370   0.13040   Biso      1.000     C          -0.085962           
         C75       1.0000    0.08520   0.44150   0.13340   Biso      1.000     C          -0.214976           
         C76       1.0000    0.55040   0.71710   0.84770   Biso      1.000     C          0.679306  
         C77       1.0000    0.32970   0.85250   0.20300   Biso      1.000     C          -0.086638           
         C78       1.0000    0.26880   0.93020   0.21860   Biso      1.000     C          -0.220418           
         C79       1.0000    0.33770   0.71220   0.05020   Biso      1.000     C          0.48642   
         C80       1.0000    0.54180   0.70080   0.90460   Biso      1.000     C          -0.122279           
         C81       1.0000    0.38480   0.64130   0.92260   Biso      1.000     C          -0.227101           
         C82       1.0000    0.54930   0.78240   0.93190   Biso      1.000     C          -0.221072           
         C83       1.0000    0.54990   0.77030   0.98840   Biso      1.000     C          -0.084861           
         C84       1.0000    0.32360   0.78110   0.12150   Biso      1.000     C          0.484536  
         H1        1.0000    0.25480   0.19500   0.71120   Biso      1.000     H          0.111242  
         H2        1.0000    0.24220   0.06890   0.75470   Biso      1.000     H          0.10938   
         H3        1.0000    0.34000   0.07020   0.70420   Biso      1.000     H          0.113257  
         H4        1.0000    0.86100   0.32200   0.41400   Biso      1.000     H          0.093599  
         H5        1.0000    0.21320   0.33670   0.41400   Biso      1.000     H          0.111937  
         H6        1.0000    0.21100   0.40670   0.48880   Biso      1.000     H          0.105252  
         H7        1.0000    0.85090   0.17960   0.42190   Biso      1.000     H          0.113641  
         H8        1.0000    0.84780   0.24660   0.49840   Biso      1.000     H          0.090891  
         H9        1.0000    0.95510   0.17820   0.50500   Biso      1.000     H          0.1092    
         H10       1.0000    0.01650   0.39670   0.48640   Biso      1.000     H          0.088265  
         H11       1.0000    0.07080   0.15140   0.72190   Biso      1.000     H          0.089709  
         H12       1.0000    0.12290   0.41120   0.40580   Biso      1.000     H          0.10919   
         H13       1.0000    0.90760   0.07440   0.64490   Biso      1.000     H          0.089437  
         H14       1.0000    0.04600   0.19400   0.42240   Biso      1.000     H          0.104626  
         H15       1.0000    0.00000   0.94930   0.63360   Biso      1.000     H          0.107014  
         H16       1.0000    0.71100   0.40670   0.01120   Biso      1.000     H          0.105252  
         H17       1.0000    0.51650   0.39670   0.01360   Biso      1.000     H          0.088265  
         H18       1.0000    0.39700   0.42100   0.31400   Biso      1.000     H          0.101375  
         H19       1.0000    0.68360   0.53110   0.28280   Biso      1.000     H          0.11179   
         H20       1.0000    0.51230   0.51480   0.25460   Biso      1.000     H          0.115228  
         H21       1.0000    0.38660   0.57410   0.32000   Biso      1.000     H          0.0924    
         H22       1.0000    0.54360   0.63740   0.30230   Biso      1.000     H          0.106888  
         H23       1.0000    0.57940   0.51550   0.42790   Biso      1.000     H          0.107996  
         H24       1.0000    0.40890   0.49750   0.39930   Biso      1.000     H          0.090213  
         H25       1.0000    0.45510   0.17820   0.99500   Biso      1.000     H          0.1092    
         H26       1.0000    0.70580   0.45110   0.36600   Biso      1.000     H          0.114649  
         H27       1.0000    0.00720   0.08020   0.59440   Biso      1.000     H          0.11385   
         H28       1.0000    0.81590   0.00400   0.37340   Biso      1.000     H          0.118392  
         H29       1.0000    0.00000   0.05070   0.36640   Biso      1.000     H          0.107014  
         H30       1.0000    0.99280   0.91980   0.40560   Biso      1.000     H          0.11385   
         H31       1.0000    0.09240   0.92560   0.35510   Biso      1.000     H          0.089437  
         H32       1.0000    0.92920   0.84860   0.27810   Biso      1.000     H          0.089709  
         H33       1.0000    0.74520   0.80500   0.28880   Biso      1.000     H          0.111242  
         H34       1.0000    0.75780   0.93110   0.24530   Biso      1.000     H          0.10938   
         H35       1.0000    0.66000   0.92980   0.29580   Biso      1.000     H          0.113257  
         H36       1.0000    0.54610   0.38980   0.38370   Biso      1.000     H          0.113334  
         H37       1.0000    0.34780   0.24660   0.00160   Biso      1.000     H          0.090891  
         H38       1.0000    0.54600   0.19400   0.07760   Biso      1.000     H          0.104626  
         H39       1.0000    0.35090   0.17960   0.07810   Biso      1.000     H          0.113641  
         H40       1.0000    0.10300   0.57900   0.81400   Biso      1.000     H          0.101375  
         H41       1.0000    0.81640   0.46890   0.78280   Biso      1.000     H          0.11179   
         H42       1.0000    0.98770   0.48520   0.75460   Biso      1.000     H          0.115228  
         H43       1.0000    0.11340   0.42590   0.82000   Biso      1.000     H          0.0924    
         H44       1.0000    0.95640   0.36260   0.80230   Biso      1.000     H          0.106888  
         H45       1.0000    0.92060   0.48450   0.92790   Biso      1.000     H          0.107996  
         H46       1.0000    0.09110   0.50250   0.89930   Biso      1.000     H          0.090213  
         H47       1.0000    0.79420   0.54890   0.86600   Biso      1.000     H          0.114649  
         H48       1.0000    0.95390   0.61020   0.88370   Biso      1.000     H          0.113334  
         H49       1.0000    0.50300   0.99300   0.78200   Biso      1.000     H          0.091431  
         H50       1.0000    0.68410   0.99600   0.87340   Biso      1.000     H          0.118392  
         H51       1.0000    0.50000   0.94930   0.86640   Biso      1.000     H          0.107014  
         H52       1.0000    0.50720   0.08020   0.90560   Biso      1.000     H          0.11385   
         H53       1.0000    0.40760   0.07440   0.85510   Biso      1.000     H          0.089437  
         H54       1.0000    0.57080   0.15140   0.77810   Biso      1.000     H          0.089709  
         H55       1.0000    0.75480   0.19500   0.78880   Biso      1.000     H          0.111242  
         H56       1.0000    0.74220   0.06890   0.74530   Biso      1.000     H          0.10938   
         H57       1.0000    0.84000   0.07020   0.79580   Biso      1.000     H          0.113257  
         H58       1.0000    0.36100   0.32200   0.08600   Biso      1.000     H          0.093598  
         H59       1.0000    0.71320   0.33670   0.08600   Biso      1.000     H          0.111937  
         H60       1.0000    0.62290   0.41120   0.09420   Biso      1.000     H          0.10919   
         H61       1.0000    0.13900   0.67800   0.58600   Biso      1.000     H          0.093599  
         H62       1.0000    0.78680   0.66330   0.58600   Biso      1.000     H          0.111937  
         H63       1.0000    0.99700   0.00700   0.28200   Biso      1.000     H          0.091431  
         H64       1.0000    0.14910   0.82040   0.57810   Biso      1.000     H          0.113641  
         H65       1.0000    0.28680   0.66330   0.91400   Biso      1.000     H          0.111937  
         H66       1.0000    0.37710   0.58880   0.90580   Biso      1.000     H          0.10919   
         H67       1.0000    0.64910   0.82040   0.92190   Biso      1.000     H          0.113641  
         H68       1.0000    0.45400   0.80600   0.92240   Biso      1.000     H          0.104625  
         H69       1.0000    0.65220   0.75340   0.99840   Biso      1.000     H          0.090891  
         H70       1.0000    0.54490   0.82180   0.00500   Biso      1.000     H          0.1092    
         H71       1.0000    0.28900   0.59330   0.98880   Biso      1.000     H          0.105252  
         H72       1.0000    0.48350   0.60330   0.98640   Biso      1.000     H          0.088265  
         H73       1.0000    0.87710   0.58880   0.59420   Biso      1.000     H          0.10919   
         H74       1.0000    0.31640   0.46890   0.71720   Biso      1.000     H          0.11179   
         H75       1.0000    0.48770   0.48520   0.74540   Biso      1.000     H          0.115228  
         H76       1.0000    0.61340   0.42590   0.68000   Biso      1.000     H          0.0924    
         H77       1.0000    0.45640   0.36260   0.69770   Biso      1.000     H          0.106888  
         H78       1.0000    0.42060   0.48450   0.57210   Biso      1.000     H          0.107996  
         H79       1.0000    0.59110   0.50250   0.60070   Biso      1.000     H          0.090213  
         H80       1.0000    0.29420   0.54890   0.63400   Biso      1.000     H          0.114649  
         H81       1.0000    0.45390   0.61020   0.61630   Biso      1.000     H          0.113334  
         H82       1.0000    0.00300   0.99300   0.71800   Biso      1.000     H          0.091431  
         H83       1.0000    0.18410   0.99600   0.62660   Biso      1.000     H          0.118392  
         H84       1.0000    0.63900   0.67800   0.91400   Biso      1.000     H          0.093598  
         H85       1.0000    0.16000   0.92980   0.20420   Biso      1.000     H          0.113257  
         H86       1.0000    0.60300   0.57900   0.68600   Biso      1.000     H          0.101375  
         H87       1.0000    0.95400   0.80600   0.57760   Biso      1.000     H          0.104625  
         H88       1.0000    0.25780   0.93110   0.25470   Biso      1.000     H          0.10938   
         H89       1.0000    0.15220   0.75340   0.50160   Biso      1.000     H          0.09089   
         H90       1.0000    0.04490   0.82180   0.49500   Biso      1.000     H          0.1092    
         H91       1.0000    0.78900   0.59330   0.51120   Biso      1.000     H          0.105252  
         H92       1.0000    0.98350   0.60330   0.51360   Biso      1.000     H          0.088265  
         H93       1.0000    0.89700   0.42100   0.18600   Biso      1.000     H          0.101375  
         H94       1.0000    0.01230   0.51480   0.24540   Biso      1.000     H          0.115228  
         H95       1.0000    0.88660   0.57410   0.18000   Biso      1.000     H          0.0924    
         H96       1.0000    0.04360   0.63740   0.19770   Biso      1.000     H          0.106888  
         H97       1.0000    0.07940   0.51550   0.07210   Biso      1.000     H          0.107996  
         H98       1.0000    0.18360   0.53110   0.21720   Biso      1.000     H          0.11179   
         H99       1.0000    0.20580   0.45110   0.13400   Biso      1.000     H          0.114649  
         H100      1.0000    0.90890   0.49750   0.10070   Biso      1.000     H          0.090213  
         H101      1.0000    0.42920   0.84860   0.22190   Biso      1.000     H          0.089709  
         H102      1.0000    0.59240   0.92560   0.14490   Biso      1.000     H          0.089437  
         H103      1.0000    0.49280   0.91980   0.09440   Biso      1.000     H          0.11385   
         H104      1.0000    0.50000   0.05070   0.13360   Biso      1.000     H          0.107014  
         H105      1.0000    0.24520   0.80500   0.21120   Biso      1.000     H          0.111242  
         H106      1.0000    0.49700   0.00700   0.21800   Biso      1.000     H          0.091431  
         H107      1.0000    0.04610   0.38980   0.11630   Biso      1.000     H          0.113334  
         H108      1.0000    0.31590   0.00400   0.12660   Biso      1.000     H          0.118392  
         N1        1.0000    0.73210   0.64720   0.43350   Biso      1.000     N          -0.564639           
         N2        1.0000    0.40770   0.70810   0.00340   Biso      1.000     N          -0.125804           
         N3        1.0000    0.38910   0.78250   0.07610   Biso      1.000     N          -0.567992           
         N4        1.0000    0.36680   0.85130   0.14950   Biso      1.000     N          -0.122534           
         N5        1.0000    0.23210   0.64720   0.06650   Biso      1.000     N          -0.564639           
         N6        1.0000    0.21870   0.71760   0.14260   Biso      1.000     N          -0.570939           
         N7        1.0000    0.07440   0.58700   0.13160   Biso      1.000     N          -0.109877           
         N8        1.0000    0.90770   0.70810   0.49660   Biso      1.000     N          -0.125804           
         N9        1.0000    0.88910   0.78250   0.42390   Biso      1.000     N          -0.567992           
         N10       1.0000    0.86680   0.85130   0.35050   Biso      1.000     N          -0.122534           
         N11       1.0000    0.71870   0.71760   0.35740   Biso      1.000     N          -0.570939           
         N12       1.0000    0.26790   0.35280   0.56650   Biso      1.000     N          -0.564639           
         N13       1.0000    0.59230   0.29190   0.99660   Biso      1.000     N          -0.125804           
         N14       1.0000    0.61090   0.21750   0.92390   Biso      1.000     N          -0.567992           
         N15       1.0000    0.63320   0.14870   0.85050   Biso      1.000     N          -0.122534           
         N16       1.0000    0.76790   0.35280   0.93350   Biso      1.000     N          -0.564639           
         N17       1.0000    0.78130   0.28240   0.85740   Biso      1.000     N          -0.570939           
         N18       1.0000    0.92560   0.41300   0.86840   Biso      1.000     N          -0.109877           
         N19       1.0000    0.09230   0.29190   0.50340   Biso      1.000     N          -0.125804           
         N20       1.0000    0.11090   0.21750   0.57610   Biso      1.000     N          -0.567992           
         N21       1.0000    0.13320   0.14870   0.64950   Biso      1.000     N          -0.122534           
         N22       1.0000    0.42560   0.41300   0.63160   Biso      1.000     N          -0.109877           
         N23       1.0000    0.57440   0.58700   0.36840   Biso      1.000     N          -0.109877           
         N24       1.0000    0.28130   0.28240   0.64260   Biso      1.000     N          -0.570939           
         Nd1       1.0000    0.78511   0.76964   0.74410   Biso      1.000     Nd          2.100531  
         Nd2       1.0000    0.28511   0.76964   0.75590   Biso      1.000     Nd          2.10053   
         Nd3       1.0000    0.21489   0.23036   0.25590   Biso      1.000     Nd          2.100531  
         Nd4       1.0000    0.71489   0.23036   0.24410   Biso      1.000     Nd          2.100531  
         O1        1.0000    0.08720   0.29120   0.32450   Biso      1.000     O          -0.712229           
         O2        1.0000    0.31050   0.90970   0.71230   Biso      1.000     O          -0.623496           
         O3        1.0000    0.51270   0.70460   0.71550   Biso      1.000     O          -0.792004           
         O4        1.0000    0.27900   0.61910   0.73500   Biso      1.000     O          -0.57982  
         O5        1.0000    0.69100   0.74000   0.82920   Biso      1.000     O          -0.652615           
         O6        1.0000    0.44250   0.14440   0.23370   Biso      1.000     O          -0.788971           
         O7        1.0000    0.41280   0.70880   0.82450   Biso      1.000     O          -0.712229           
         O8        1.0000    0.18950   0.09030   0.21230   Biso      1.000     O          -0.623496           
         O9        1.0000    0.98730   0.29540   0.21550   Biso      1.000     O          -0.792004           
         O10       1.0000    0.22100   0.38090   0.23500   Biso      1.000     O          -0.57982  
         O11       1.0000    0.19100   0.74000   0.67080   Biso      1.000     O          -0.652615           
         O12       1.0000    0.94250   0.14440   0.26630   Biso      1.000     O          -0.788971           
         O13       1.0000    0.91280   0.70880   0.67550   Biso      1.000     O          -0.712229           
         O14       1.0000    0.68950   0.09030   0.28770   Biso      1.000     O          -0.623496           
         O15       1.0000    0.48730   0.29540   0.28450   Biso      1.000     O          -0.792004           
         O16       1.0000    0.72100   0.38090   0.26500   Biso      1.000     O          -0.57982  
         O17       1.0000    0.30900   0.26000   0.17080   Biso      1.000     O          -0.652615           
         O18       1.0000    0.55750   0.85560   0.76630   Biso      1.000     O          -0.788971           
         O19       1.0000    0.58720   0.29120   0.17550   Biso      1.000     O          -0.712229           
         O20       1.0000    0.81050   0.90970   0.78770   Biso      1.000     O          -0.623496           
         O21       1.0000    0.01270   0.70460   0.78450   Biso      1.000     O          -0.792004           
         O22       1.0000    0.77900   0.61910   0.76500   Biso      1.000     O          -0.57982  
         O23       1.0000    0.05750   0.85560   0.73370   Biso      1.000     O          -0.788971           
         O24       1.0000    0.80900   0.26000   0.32920   Biso      1.000     O          -0.652615 