
##########################################################################
#               Crystallographic Information Format file
#               Produced by PyCifRW module
#
#  This is a CIF file.  CIF has been adopted by the International
#  Union of Crystallography as the standard for data archiving and
#  transmission.
#
#  For information on this file format, follow the CIF links at
#  http://www.iucr.org
##########################################################################

data_image0

_cell_length_a                          8.0794
_cell_length_b                          16.6042
_cell_length_c                          26.8003
_cell_angle_alpha                       90
_cell_angle_beta                        90
_cell_angle_gamma                       101.191
_symmetry_space_group_name_H-M          'P 1'
_symmetry_int_tables_number             1
loop_
  _symmetry_equiv_pos_as_xyz
         'x, y, z' 
loop_
  _atom_site_label
  _atom_site_occupancy
  _atom_site_fract_x
  _atom_site_fract_y
  _atom_site_fract_z
  _atom_site_thermal_displace_type
  _atom_site_B_iso_or_equiv
  _atom_site_type_symbol
  _atom_site_charge
         C1        1.0000    0.03840   0.50560   0.89450   Biso      1.000     C          -0.087698           
         C2        1.0000    0.95380   0.22710   0.51329   Biso      1.000     C          -0.088093           
         C3        1.0000    0.10860   0.36970   0.52321   Biso      1.000     C          -0.09107  
         C4        1.0000    0.11400   0.35850   0.57938   Biso      1.000     C          -0.227285           
         C5        1.0000    0.15950   0.28810   0.45034   Biso      1.000     C          0.478671  
         C6        1.0000    0.18110   0.21880   0.37934   Biso      1.000     C          0.482122  
         C7        1.0000    0.31830   0.34940   0.38700   Biso      1.000     C          0.473623  
         C8        1.0000    0.46160   0.49440   0.39450   Biso      1.000     C          -0.087698           
         C9        1.0000    0.40690   0.56250   0.36568   Biso      1.000     C          -0.217392           
         C10       1.0000    0.43210   0.48690   0.28688   Biso      1.000     C          -0.219257           
         C11       1.0000    0.48740   0.41950   0.31741   Biso      1.000     C          -0.091365           
         C12       1.0000    0.16230   0.91650   0.28440   Biso      1.000     C          0.610875  
         C13       1.0000    0.47870   0.56950   0.31283   Biso      1.000     C          -0.115792           
         C14       1.0000    0.17430   0.14880   0.29880   Biso      1.000     C          -0.085533           
         C15       1.0000    0.22950   0.07060   0.28289   Biso      1.000     C          -0.22386  
         C16       1.0000    0.08440   0.99870   0.35656   Biso      1.000     C          -0.21623  
         C17       1.0000    0.02770   0.07660   0.37115   Biso      1.000     C          -0.084012           
         C18       1.0000    0.10750   0.99410   0.29980   Biso      1.000     C          -0.117463           
         C19       1.0000    0.95800   0.21500   0.56930   Biso      1.000     C          -0.222187           
         C20       1.0000    0.41710   0.63620   0.28494   Biso      1.000     C          0.627497  
         C21       1.0000    0.96150   0.29590   0.59704   Biso      1.000     C          -0.114149           
         C22       1.0000    0.08290   0.36380   0.78494   Biso      1.000     C          0.627497  
         C23       1.0000    0.54200   0.78500   0.06930   Biso      1.000     C          -0.222186           
         C24       1.0000    0.54620   0.77290   0.01329   Biso      1.000     C          -0.088094           
         C25       1.0000    0.39140   0.63030   0.02321   Biso      1.000     C          -0.09107  
         C26       1.0000    0.38600   0.64150   0.07938   Biso      1.000     C          -0.227285           
         C27       1.0000    0.34050   0.71190   0.95034   Biso      1.000     C          0.478671  
         C28       1.0000    0.31890   0.78120   0.87934   Biso      1.000     C          0.482122  
         C29       1.0000    0.18170   0.65060   0.88700   Biso      1.000     C          0.473622  
         C30       1.0000    0.09310   0.43750   0.86568   Biso      1.000     C          -0.217392           
         C31       1.0000    0.06790   0.51310   0.78688   Biso      1.000     C          -0.219258           
         C32       1.0000    0.01260   0.58050   0.81741   Biso      1.000     C          -0.091366           
         C33       1.0000    0.33770   0.08350   0.78440   Biso      1.000     C          0.610874  
         C34       1.0000    0.02130   0.43050   0.81283   Biso      1.000     C          -0.115793           
         C35       1.0000    0.32570   0.85120   0.79880   Biso      1.000     C          -0.085533           
         C36       1.0000    0.27050   0.92940   0.78289   Biso      1.000     C          -0.22386  
         C37       1.0000    0.41560   0.00130   0.85656   Biso      1.000     C          -0.216229           
         C38       1.0000    0.47230   0.92340   0.87115   Biso      1.000     C          -0.084012           
         C39       1.0000    0.39250   0.00590   0.79980   Biso      1.000     C          -0.117464           
         C40       1.0000    0.95710   0.28020   0.65301   Biso      1.000     C          0.621537  
         C41       1.0000    0.45710   0.28020   0.84699   Biso      1.000     C          0.621541  
         C42       1.0000    0.46150   0.29590   0.90296   Biso      1.000     C          -0.11415  
         C43       1.0000    0.45800   0.21500   0.93070   Biso      1.000     C          -0.222186           
         C44       1.0000    0.89140   0.63030   0.47679   Biso      1.000     C          -0.091071           
         C45       1.0000    0.88600   0.64150   0.42062   Biso      1.000     C          -0.227286           
         C46       1.0000    0.84050   0.71190   0.54966   Biso      1.000     C          0.478673  
         C47       1.0000    0.81890   0.78120   0.62066   Biso      1.000     C          0.482123  
         C48       1.0000    0.68170   0.65060   0.61300   Biso      1.000     C          0.473622  
         C49       1.0000    0.53840   0.50560   0.60550   Biso      1.000     C          -0.087698           
         C50       1.0000    0.59310   0.43750   0.63432   Biso      1.000     C          -0.217393           
         C51       1.0000    0.56790   0.51310   0.71312   Biso      1.000     C          -0.219258           
         C52       1.0000    0.51260   0.58050   0.68259   Biso      1.000     C          -0.091367           
         C53       1.0000    0.83770   0.08350   0.71560   Biso      1.000     C          0.610875  
         C54       1.0000    0.52130   0.43050   0.68717   Biso      1.000     C          -0.115791           
         C55       1.0000    0.82570   0.85120   0.70120   Biso      1.000     C          -0.085533           
         C56       1.0000    0.77050   0.92940   0.71711   Biso      1.000     C          -0.22386  
         C57       1.0000    0.91560   0.00130   0.64344   Biso      1.000     C          -0.21623  
         C58       1.0000    0.97230   0.92340   0.62885   Biso      1.000     C          -0.084013           
         C59       1.0000    0.89250   0.00590   0.70020   Biso      1.000     C          -0.117463           
         C60       1.0000    0.58290   0.36380   0.71506   Biso      1.000     C          0.627496  
         C61       1.0000    0.04620   0.77290   0.48671   Biso      1.000     C          -0.088094           
         C62       1.0000    0.04200   0.78500   0.43070   Biso      1.000     C          -0.222187           
         C63       1.0000    0.03850   0.70410   0.40296   Biso      1.000     C          -0.11415  
         C64       1.0000    0.04290   0.71980   0.34699   Biso      1.000     C          0.62154   
         C65       1.0000    0.45380   0.22710   0.98671   Biso      1.000     C          -0.088093           
         C66       1.0000    0.60860   0.36970   0.97679   Biso      1.000     C          -0.091069           
         C67       1.0000    0.61400   0.35850   0.92062   Biso      1.000     C          -0.227284           
         C68       1.0000    0.65950   0.28810   0.04966   Biso      1.000     C          0.478671  
         C69       1.0000    0.68110   0.21880   0.12066   Biso      1.000     C          0.482121  
         C70       1.0000    0.81830   0.34940   0.11300   Biso      1.000     C          0.473623  
         C71       1.0000    0.96160   0.49440   0.10550   Biso      1.000     C          -0.087697           
         C72       1.0000    0.90690   0.56250   0.13432   Biso      1.000     C          -0.217392           
         C73       1.0000    0.53850   0.70410   0.09704   Biso      1.000     C          -0.114151           
         C74       1.0000    0.93210   0.48690   0.21312   Biso      1.000     C          -0.219257           
         C75       1.0000    0.66230   0.91650   0.21560   Biso      1.000     C          0.610877  
         C76       1.0000    0.97870   0.56950   0.18717   Biso      1.000     C          -0.115792           
         C77       1.0000    0.67430   0.14880   0.20120   Biso      1.000     C          -0.085534           
         C78       1.0000    0.72950   0.07060   0.21711   Biso      1.000     C          -0.22386  
         C79       1.0000    0.58440   0.99870   0.14344   Biso      1.000     C          -0.21623  
         C80       1.0000    0.52770   0.07660   0.12885   Biso      1.000     C          -0.084014           
         C81       1.0000    0.60750   0.99410   0.20020   Biso      1.000     C          -0.117464           
         C82       1.0000    0.91710   0.63620   0.21506   Biso      1.000     C          0.627497  
         C83       1.0000    0.98740   0.41950   0.18259   Biso      1.000     C          -0.091365           
         C84       1.0000    0.54290   0.71980   0.15301   Biso      1.000     C          0.621539  
         Eu1       1.0000    0.78500   0.77266   0.25567   Biso      1.000     Eu          1.35331   
         Eu2       1.0000    0.71500   0.22734   0.75567   Biso      1.000     Eu          1.353309  
         Eu3       1.0000    0.21500   0.22734   0.74433   Biso      1.000     Eu          1.35331   
         Eu4       1.0000    0.28500   0.77266   0.24433   Biso      1.000     Eu          1.353309  
         H1        1.0000    0.14000   0.68400   0.41200   Biso      1.000     H          0.087127  
         H2        1.0000    0.86000   0.31600   0.58800   Biso      1.000     H          0.087127  
         H3        1.0000    0.49800   0.99400   0.21590   Biso      1.000     H          0.091787  
         H4        1.0000    0.05720   0.19330   0.57810   Biso      1.000     H          0.109897  
         H5        1.0000    0.84830   0.24260   0.50390   Biso      1.000     H          0.095818  
         H6        1.0000    0.96010   0.17600   0.49660   Biso      1.000     H          0.110018  
         H7        1.0000    0.21010   0.40680   0.51240   Biso      1.000     H          0.104697  
         H8        1.0000    0.01260   0.39410   0.51460   Biso      1.000     H          0.091513  
         H9        1.0000    0.21670   0.34000   0.58840   Biso      1.000     H          0.114254  
         H10       1.0000    0.11500   0.41070   0.59580   Biso      1.000     H          0.110906  
         H11       1.0000    0.40680   0.48890   0.42690   Biso      1.000     H          0.108454  
         H12       1.0000    0.58260   0.50770   0.39980   Biso      1.000     H          0.097911  
         H13       1.0000    0.44430   0.61410   0.38310   Biso      1.000     H          0.118333  
         H14       1.0000    0.50200   0.00600   0.78410   Biso      1.000     H          0.091787  
         H15       1.0000    0.31100   0.47350   0.28190   Biso      1.000     H          0.109183  
         H16       1.0000    0.48580   0.49010   0.25440   Biso      1.000     H          0.118637  
         H17       1.0000    0.60960   0.42940   0.31920   Biso      1.000     H          0.102366  
         H18       1.0000    0.44910   0.36680   0.30130   Biso      1.000     H          0.108705  
         H19       1.0000    0.60200   0.58400   0.31510   Biso      1.000     H          0.100542  
         H20       1.0000    0.07230   0.15390   0.28100   Biso      1.000     H          0.092514  
         H21       1.0000    0.26130   0.19570   0.29020   Biso      1.000     H          0.107698  
         H22       1.0000    0.23880   0.07000   0.24680   Biso      1.000     H          0.107981  
         H23       1.0000    0.34020   0.07000   0.29670   Biso      1.000     H          0.110612  
         H24       1.0000    0.19030   0.99640   0.37300   Biso      1.000     H          0.113634  
         H25       1.0000    0.28470   0.55230   0.36400   Biso      1.000     H          0.11233   
         H26       1.0000    0.58450   0.92430   0.85800   Biso      1.000     H          0.092049  
         H27       1.0000    0.49870   0.04820   0.86760   Biso      1.000     H          0.114084  
         H28       1.0000    0.00130   0.95180   0.36760   Biso      1.000     H          0.114085  
         H29       1.0000    0.64000   0.68400   0.08800   Biso      1.000     H          0.087127  
         H30       1.0000    0.64080   0.82470   0.07950   Biso      1.000     H          0.120142  
         H31       1.0000    0.44280   0.80670   0.07810   Biso      1.000     H          0.109897  
         H32       1.0000    0.65170   0.75740   0.00390   Biso      1.000     H          0.095817  
         H33       1.0000    0.53990   0.82400   0.99660   Biso      1.000     H          0.110018  
         H34       1.0000    0.28990   0.59320   0.01240   Biso      1.000     H          0.104697  
         H35       1.0000    0.48740   0.60590   0.01460   Biso      1.000     H          0.091512  
         H36       1.0000    0.28330   0.66000   0.08840   Biso      1.000     H          0.114253  
         H37       1.0000    0.38500   0.58930   0.09580   Biso      1.000     H          0.110906  
         H38       1.0000    0.09320   0.51110   0.92690   Biso      1.000     H          0.108455  
         H39       1.0000    0.91740   0.49230   0.89980   Biso      1.000     H          0.097911  
         H40       1.0000    0.21530   0.44770   0.86400   Biso      1.000     H          0.112331  
         H41       1.0000    0.05570   0.38590   0.88310   Biso      1.000     H          0.118334  
         H42       1.0000    0.18900   0.52650   0.78190   Biso      1.000     H          0.109184  
         H43       1.0000    0.01420   0.50990   0.75440   Biso      1.000     H          0.118638  
         H44       1.0000    0.89040   0.57060   0.81920   Biso      1.000     H          0.102366  
         H45       1.0000    0.05090   0.63320   0.80130   Biso      1.000     H          0.108706  
         H46       1.0000    0.89800   0.41600   0.81510   Biso      1.000     H          0.100543  
         H47       1.0000    0.42770   0.84610   0.78100   Biso      1.000     H          0.092512  
         H48       1.0000    0.23870   0.80430   0.79020   Biso      1.000     H          0.107697  
         H49       1.0000    0.26120   0.93000   0.74680   Biso      1.000     H          0.107979  
         H50       1.0000    0.15980   0.93000   0.79670   Biso      1.000     H          0.110611  
         H51       1.0000    0.30970   0.00360   0.87300   Biso      1.000     H          0.113634  
         H52       1.0000    0.47810   0.92020   0.90720   Biso      1.000     H          0.109713  
         H53       1.0000    0.02190   0.07980   0.40720   Biso      1.000     H          0.109714  
         H54       1.0000    0.85920   0.17530   0.57950   Biso      1.000     H          0.120143  
         H55       1.0000    0.99800   0.99400   0.28410   Biso      1.000     H          0.091787  
         H56       1.0000    0.97810   0.92020   0.59280   Biso      1.000     H          0.109714  
         H57       1.0000    0.99870   0.04820   0.63240   Biso      1.000     H          0.114085  
         H58       1.0000    0.80970   0.00360   0.62700   Biso      1.000     H          0.113634  
         H59       1.0000    0.65980   0.93000   0.70330   Biso      1.000     H          0.110612  
         H60       1.0000    0.76120   0.93000   0.75320   Biso      1.000     H          0.107981  
         H61       1.0000    0.73870   0.80430   0.70980   Biso      1.000     H          0.107698  
         H62       1.0000    0.92770   0.84610   0.71900   Biso      1.000     H          0.092514  
         H63       1.0000    0.39800   0.41600   0.68490   Biso      1.000     H          0.100542  
         H64       1.0000    0.55090   0.63320   0.69870   Biso      1.000     H          0.108706  
         H65       1.0000    0.39040   0.57060   0.68080   Biso      1.000     H          0.102366  
         H66       1.0000    0.51420   0.50990   0.74560   Biso      1.000     H          0.118637  
         H67       1.0000    0.08450   0.92430   0.64200   Biso      1.000     H          0.09205   
         H68       1.0000    0.68900   0.52650   0.71810   Biso      1.000     H          0.109183  
         H69       1.0000    0.71530   0.44770   0.63600   Biso      1.000     H          0.11233   
         H70       1.0000    0.41740   0.49230   0.60020   Biso      1.000     H          0.09791   
         H71       1.0000    0.59320   0.51110   0.57310   Biso      1.000     H          0.108455  
         H72       1.0000    0.88500   0.58930   0.40420   Biso      1.000     H          0.110907  
         H73       1.0000    0.78330   0.66000   0.41160   Biso      1.000     H          0.114254  
         H74       1.0000    0.98740   0.60590   0.48540   Biso      1.000     H          0.091513  
         H75       1.0000    0.78990   0.59320   0.48760   Biso      1.000     H          0.104698  
         H76       1.0000    0.91550   0.07570   0.35800   Biso      1.000     H          0.092049  
         H77       1.0000    0.15170   0.75740   0.49610   Biso      1.000     H          0.095818  
         H78       1.0000    0.94280   0.80670   0.42190   Biso      1.000     H          0.109897  
         H79       1.0000    0.14080   0.82470   0.42050   Biso      1.000     H          0.120142  
         H80       1.0000    0.55570   0.38590   0.61690   Biso      1.000     H          0.118333  
         H81       1.0000    0.00200   0.00600   0.71590   Biso      1.000     H          0.091787  
         H82       1.0000    0.03990   0.82400   0.50340   Biso      1.000     H          0.110018  
         H83       1.0000    0.52190   0.07980   0.09280   Biso      1.000     H          0.109715  
         H84       1.0000    0.36000   0.31600   0.91200   Biso      1.000     H          0.087126  
         H85       1.0000    0.35920   0.17530   0.92050   Biso      1.000     H          0.120142  
         H86       1.0000    0.55720   0.19330   0.92190   Biso      1.000     H          0.109897  
         H87       1.0000    0.34830   0.24260   0.99610   Biso      1.000     H          0.095818  
         H88       1.0000    0.46010   0.17600   0.00340   Biso      1.000     H          0.110017  
         H89       1.0000    0.71010   0.40680   0.98760   Biso      1.000     H          0.104696  
         H90       1.0000    0.51260   0.39410   0.98540   Biso      1.000     H          0.091512  
         H91       1.0000    0.41550   0.07570   0.14200   Biso      1.000     H          0.09205   
         H92       1.0000    0.61500   0.41070   0.90420   Biso      1.000     H          0.110905  
         H93       1.0000    0.90680   0.48890   0.07310   Biso      1.000     H          0.108454  
         H94       1.0000    0.08260   0.50770   0.10020   Biso      1.000     H          0.097911  
         H95       1.0000    0.78470   0.55230   0.13600   Biso      1.000     H          0.112331  
         H96       1.0000    0.71670   0.34000   0.91160   Biso      1.000     H          0.114252  
         H97       1.0000    0.81100   0.47350   0.21810   Biso      1.000     H          0.109183  
         H98       1.0000    0.94430   0.61410   0.11690   Biso      1.000     H          0.118333  
         H99       1.0000    0.69030   0.99640   0.12700   Biso      1.000     H          0.113634  
         H100      1.0000    0.84020   0.07000   0.20330   Biso      1.000     H          0.110612  
         H101      1.0000    0.73880   0.07000   0.25320   Biso      1.000     H          0.10798   
         H102      1.0000    0.76130   0.19570   0.20980   Biso      1.000     H          0.107697  
         H103      1.0000    0.50130   0.95180   0.13240   Biso      1.000     H          0.114085  
         H104      1.0000    0.10200   0.58400   0.18490   Biso      1.000     H          0.100542  
         H105      1.0000    0.94910   0.36680   0.19870   Biso      1.000     H          0.108704  
         H106      1.0000    0.10960   0.42940   0.18080   Biso      1.000     H          0.102366  
         H107      1.0000    0.98580   0.49010   0.24560   Biso      1.000     H          0.118637  
         H108      1.0000    0.57230   0.15390   0.21900   Biso      1.000     H          0.092514  
         N1        1.0000    0.61390   0.21740   0.07485   Biso      1.000     N          -0.549963           
         N2        1.0000    0.76350   0.35580   0.06589   Biso      1.000     N          -0.550952           
         N3        1.0000    0.78210   0.28320   0.14235   Biso      1.000     N          -0.547247           
         N4        1.0000    0.64270   0.14890   0.14772   Biso      1.000     N          -0.096456           
         N5        1.0000    0.91800   0.41730   0.13258   Biso      1.000     N          -0.053515           
         N6        1.0000    0.88610   0.78260   0.57485   Biso      1.000     N          -0.549968           
         N7        1.0000    0.73650   0.64420   0.56589   Biso      1.000     N          -0.550956           
         N8        1.0000    0.71790   0.71680   0.64235   Biso      1.000     N          -0.547243           
         N9        1.0000    0.85730   0.85110   0.64772   Biso      1.000     N          -0.096459           
         N10       1.0000    0.58200   0.58270   0.63258   Biso      1.000     N          -0.053518           
         N11       1.0000    0.90480   0.70900   0.50259   Biso      1.000     N          -0.095045           
         N12       1.0000    0.59520   0.29100   0.00259   Biso      1.000     N          -0.095048           
         N13       1.0000    0.14270   0.14890   0.35228   Biso      1.000     N          -0.096459           
         N14       1.0000    0.28210   0.28320   0.35765   Biso      1.000     N          -0.547244           
         N15       1.0000    0.26350   0.35580   0.43411   Biso      1.000     N          -0.550955           
         N16       1.0000    0.11390   0.21740   0.42515   Biso      1.000     N          -0.549964           
         N17       1.0000    0.09520   0.29100   0.49741   Biso      1.000     N          -0.095047           
         N18       1.0000    0.08200   0.58270   0.86742   Biso      1.000     N          -0.053516           
         N19       1.0000    0.35730   0.85110   0.85228   Biso      1.000     N          -0.096458           
         N20       1.0000    0.21790   0.71680   0.85765   Biso      1.000     N          -0.547244           
         N21       1.0000    0.23650   0.64420   0.93411   Biso      1.000     N          -0.550955           
         N22       1.0000    0.38610   0.78260   0.92515   Biso      1.000     N          -0.549964           
         N23       1.0000    0.40480   0.70900   0.99741   Biso      1.000     N          -0.095047           
         N24       1.0000    0.41800   0.41730   0.36742   Biso      1.000     N          -0.053514           
         O1        1.0000    0.81350   0.91050   0.21196   Biso      1.000     O          -0.536657           
         O2        1.0000    0.55750   0.85645   0.23376   Biso      1.000     O          -0.600941           
         O3        1.0000    0.01110   0.70888   0.21602   Biso      1.000     O          -0.613738           
         O4        1.0000    0.77580   0.62392   0.23472   Biso      1.000     O          -0.541141           
         O5        1.0000    0.48890   0.29112   0.71602   Biso      1.000     O          -0.613738           
         O6        1.0000    0.18830   0.74320   0.32805   Biso      1.000     O          -0.528879           
         O7        1.0000    0.68650   0.08950   0.71196   Biso      1.000     O          -0.536657           
         O8        1.0000    0.94250   0.14355   0.73376   Biso      1.000     O          -0.60094  
         O9        1.0000    0.31170   0.25680   0.82805   Biso      1.000     O          -0.528875           
         O10       1.0000    0.59350   0.28665   0.82395   Biso      1.000     O          -0.592618           
         O11       1.0000    0.09350   0.28665   0.67605   Biso      1.000     O          -0.592614           
         O12       1.0000    0.81170   0.25680   0.67195   Biso      1.000     O          -0.528873           
         O13       1.0000    0.51110   0.70888   0.28398   Biso      1.000     O          -0.613736           
         O14       1.0000    0.05750   0.85645   0.26624   Biso      1.000     O          -0.600937           
         O15       1.0000    0.31350   0.91050   0.28804   Biso      1.000     O          -0.536659           
         O16       1.0000    0.40650   0.71335   0.17605   Biso      1.000     O          -0.592612           
         O17       1.0000    0.22420   0.37608   0.76528   Biso      1.000     O          -0.541143           
         O18       1.0000    0.98890   0.29112   0.78398   Biso      1.000     O          -0.613739           
         O19       1.0000    0.44250   0.14355   0.76624   Biso      1.000     O          -0.600935           
         O20       1.0000    0.18650   0.08950   0.78804   Biso      1.000     O          -0.536656           
         O21       1.0000    0.68830   0.74320   0.17195   Biso      1.000     O          -0.528884           
         O22       1.0000    0.72420   0.37608   0.73472   Biso      1.000     O          -0.541144           
         O23       1.0000    0.27580   0.62392   0.26528   Biso      1.000     O          -0.541142           
         O24       1.0000    0.90650   0.71335   0.32395   Biso      1.000     O          -0.592614 