
##########################################################################
#               Crystallographic Information Format file
#               Produced by PyCifRW module
#
#  This is a CIF file.  CIF has been adopted by the International
#  Union of Crystallography as the standard for data archiving and
#  transmission.
#
#  For information on this file format, follow the CIF links at
#  http://www.iucr.org
##########################################################################

data_image0

_cell_length_a                          9.214
_cell_length_b                          13.0259
_cell_length_c                          18.5959
_cell_angle_alpha                       72.3464
_cell_angle_beta                        75.656
_cell_angle_gamma                       69.2875
_symmetry_space_group_name_H-M          'P 1'
_symmetry_int_tables_number             1
loop_
  _symmetry_equiv_pos_as_xyz
         'x, y, z' 
loop_
  _atom_site_label
  _atom_site_occupancy
  _atom_site_fract_x
  _atom_site_fract_y
  _atom_site_fract_z
  _atom_site_thermal_displace_type
  _atom_site_B_iso_or_equiv
  _atom_site_type_symbol
  _atom_site_charge
         C1        1.0000    0.99716   0.44078   0.31470   Biso      1.000     C          0.619169  
         C2        1.0000    0.38240   0.84170   0.79990   Biso      1.000     C          -0.025419           
         C3        1.0000    0.91533   0.84254   0.82820   Biso      1.000     C          -0.573175           
         C4        1.0000    0.37160   0.03550   0.40410   Biso      1.000     C          -0.565839           
         C5        1.0000    0.11671   0.15508   0.97990   Biso      1.000     C          0.629207  
         C6        1.0000    0.02112   0.21996   0.23340   Biso      1.000     C          0.437349  
         C7        1.0000    0.47576   0.05218   0.58030   Biso      1.000     C          0.462458  
         C8        1.0000    0.69541   0.78018   0.45680   Biso      1.000     C          0.00985   
         C9        1.0000    0.88931   0.26828   0.33810   Biso      1.000     C          -0.038356           
         C10       1.0000    0.62840   0.96450   0.59590   Biso      1.000     C          -0.565839           
         C11       1.0000    0.44144   0.24012   0.09100   Biso      1.000     C          0.631679  
         C12       1.0000    0.93239   0.71982   0.04320   Biso      1.000     C          0.014786  
         C13       1.0000    0.94016   0.36098   0.92770   Biso      1.000     C          0.001038  
         C14       1.0000    0.97888   0.78004   0.76660   Biso      1.000     C          0.43734799999999996           
         C15       1.0000    0.05984   0.63902   0.07230   Biso      1.000     C          0.001044  
         C16       1.0000    0.47448   0.28004   0.26660   Biso      1.000     C          0.436913  
         C17       1.0000    0.75264   0.05922   0.18530   Biso      1.000     C          0.62295   
         C18       1.0000    0.50431   0.76828   0.83810   Biso      1.000     C          -0.037819           
         C19       1.0000    0.81120   0.46450   0.09590   Biso      1.000     C          -0.56647  
         C20       1.0000    0.24736   0.94078   0.81470   Biso      1.000     C          0.62295   
         C21       1.0000    0.18880   0.53550   0.90410   Biso      1.000     C          -0.56647  
         C22       1.0000    0.02400   0.65830   0.70010   Biso      1.000     C          -0.023003           
         C23       1.0000    0.10824   0.44782   0.91970   Biso      1.000     C          0.46262700000000007           
         C24       1.0000    0.00284   0.55922   0.68530   Biso      1.000     C          0.619169  
         C25       1.0000    0.78398   0.36034   0.91850   Biso      1.000     C          0.643333  
         C26       1.0000    0.77256   0.25988   0.40900   Biso      1.000     C          0.63281   
         C27       1.0000    0.52424   0.94782   0.41970   Biso      1.000     C          0.462458  
         C28       1.0000    0.49569   0.23172   0.16190   Biso      1.000     C          -0.037822           
         C29       1.0000    0.06761   0.28018   0.95680   Biso      1.000     C          0.014792  
         C30       1.0000    0.21602   0.63966   0.08150   Biso      1.000     C          0.643333  
         C31       1.0000    0.11069   0.73172   0.66190   Biso      1.000     C          -0.038355           
         C32       1.0000    0.61760   0.15830   0.20010   Biso      1.000     C          -0.025417           
         C33       1.0000    0.93718   0.86034   0.41850   Biso      1.000     C          0.644944  
         C34       1.0000    0.55856   0.75988   0.90900   Biso      1.000     C          0.631678  
         C35       1.0000    0.74831   0.65508   0.47990   Biso      1.000     C          0.634667  
         C36       1.0000    0.52552   0.71996   0.73340   Biso      1.000     C          0.436913  
         C37       1.0000    0.22744   0.74012   0.59100   Biso      1.000     C          0.63281   
         C38       1.0000    0.97600   0.34170   0.29990   Biso      1.000     C          -0.023002           
         C39       1.0000    0.25169   0.34492   0.52010   Biso      1.000     C          0.634667  
         C40       1.0000    0.22884   0.13902   0.57230   Biso      1.000     C          0.001628  
         C41       1.0000    0.30459   0.21982   0.54320   Biso      1.000     C          0.00985   
         C42       1.0000    0.41393   0.34254   0.32820   Biso      1.000     C          -0.575198           
         C43       1.0000    0.88329   0.84492   0.02010   Biso      1.000     C          0.629207  
         C44       1.0000    0.08467   0.15746   0.17180   Biso      1.000     C          -0.573176           
         C45       1.0000    0.77116   0.86098   0.42770   Biso      1.000     C          0.001628  
         C46       1.0000    0.89176   0.55218   0.08030   Biso      1.000     C          0.46262700000000007           
         C47       1.0000    0.06282   0.13966   0.58150   Biso      1.000     C          0.644944  
         C48       1.0000    0.58607   0.65746   0.67180   Biso      1.000     C          -0.575198           
         H1        1.0000    0.32730   0.31950   0.36150   Biso      1.000     H          0.173773  
         H2        1.0000    0.37310   0.10670   0.40850   Biso      1.000     H          0.185911  
         H3        1.0000    0.25870   0.51360   0.94040   Biso      1.000     H          0.195997  
         H4        1.0000    0.49600   0.32620   0.35700   Biso      1.000     H          0.176375  
         H5        1.0000    0.17920   0.17380   0.14300   Biso      1.000     H          0.176258  
         H6        1.0000    0.99170   0.81950   0.86150   Biso      1.000     H          0.17283800000000002           
         H7        1.0000    0.00830   0.18050   0.13850   Biso      1.000     H          0.17283800000000002           
         H8        1.0000    0.71270   0.98640   0.55960   Biso      1.000     H          0.195325  
         H9        1.0000    0.11170   0.60670   0.90850   Biso      1.000     H          0.185838  
         H10       1.0000    0.28730   0.01360   0.44040   Biso      1.000     H          0.195325  
         H11       1.0000    0.64370   0.95720   0.64660   Biso      1.000     H          0.199376  
         H12       1.0000    0.50400   0.67380   0.64300   Biso      1.000     H          0.176375  
         H13       1.0000    0.26300   0.30750   0.96530   Biso      1.000     H          0.326587  
         H14       1.0000    0.62060   0.57780   0.69420   Biso      1.000     H          0.18328599999999998           
         H15       1.0000    0.74130   0.48640   0.05960   Biso      1.000     H          0.195997  
         H16       1.0000    0.24750   0.54280   0.85340   Biso      1.000     H          0.200434  
         H17       1.0000    0.46420   0.80750   0.46530   Biso      1.000     H          0.32361999999999996           
         H18       1.0000    0.37940   0.42220   0.30580   Biso      1.000     H          0.18328599999999998           
         H19       1.0000    0.75250   0.45720   0.14660   Biso      1.000     H          0.200434  
         H20       1.0000    0.89260   0.92220   0.80580   Biso      1.000     H          0.182575  
         H21       1.0000    0.35630   0.04280   0.35340   Biso      1.000     H          0.199376  
         H22       1.0000    0.67270   0.68050   0.63850   Biso      1.000     H          0.173773  
         H23       1.0000    0.10740   0.07780   0.19420   Biso      1.000     H          0.182575  
         H24       1.0000    0.88830   0.39330   0.09150   Biso      1.000     H          0.185838  
         H25       1.0000    0.82080   0.82620   0.85700   Biso      1.000     H          0.176258  
         H26       1.0000    0.73700   0.69250   0.03470   Biso      1.000     H          0.326587  
         H27       1.0000    0.62690   0.89330   0.59150   Biso      1.000     H          0.185911  
         H28       1.0000    0.53580   0.19250   0.53470   Biso      1.000     H          0.32361999999999996           
         N1        1.0000    0.60274   0.18852   0.26680   Biso      1.000     N          -0.400285           
         N2        1.0000    0.96735   0.46506   0.90364   Biso      1.000     N          -0.36898000000000003          
         N3        1.0000    0.46056   0.16258   0.54890   Biso      1.000     N          -0.296033           
         N4        1.0000    0.40542   0.30859   0.20497   Biso      1.000     N          -0.373682           
         N5        1.0000    0.33605   0.03494   0.59636   Biso      1.000     N          -0.36888200000000004          
         N6        1.0000    0.39726   0.81148   0.73320   Biso      1.000     N          -0.400285           
         N7        1.0000    0.05806   0.31148   0.23320   Biso      1.000     N          -0.401307           
         N8        1.0000    0.82796   0.66258   0.04890   Biso      1.000     N          -0.303146           
         N9        1.0000    0.66395   0.96506   0.40364   Biso      1.000     N          -0.36888200000000004          
         N10       1.0000    0.91898   0.19141   0.29503   Biso      1.000     N          -0.374321           
         N11       1.0000    0.59458   0.69141   0.79503   Biso      1.000     N          -0.373682           
         N12       1.0000    0.08102   0.80859   0.70497   Biso      1.000     N          -0.374321           
         N13       1.0000    0.17204   0.33742   0.95110   Biso      1.000     N          -0.303147           
         N14       1.0000    0.94194   0.68852   0.76680   Biso      1.000     N          -0.401307           
         N15       1.0000    0.03265   0.53494   0.09636   Biso      1.000     N          -0.368981           
         N16       1.0000    0.53944   0.83742   0.45110   Biso      1.000     N          -0.296033           
         O1        1.0000    0.74026   0.89735   0.01633   Biso      1.000     O          -0.6322810000000001           
         O2        1.0000    0.73862   0.27509   0.95187   Biso      1.000     O          -0.739777           
         O3        1.0000    0.29548   0.55151   0.12133   Biso      1.000     O          -0.48810299999999995          
         O4        1.0000    0.11457   0.39946   0.50480   Biso      1.000     O          -0.771783           
         O5        1.0000    0.31768   0.31898   0.07486   Biso      1.000     O          -0.536307           
         O6        1.0000    0.07496   0.49562   0.26246   Biso      1.000     O          -0.528482           
         O7        1.0000    0.26679   0.66741   0.55221   Biso      1.000     O          -0.723945           
         O8        1.0000    0.05781   0.53413   0.62105   Biso      1.000     O          -0.717404           
         O9        1.0000    0.71152   0.18102   0.42514   Biso      1.000     O          -0.53699  
         O10       1.0000    0.51359   0.16741   0.05221   Biso      1.000     O          -0.723071           
         O11       1.0000    0.03442   0.77509   0.45187   Biso      1.000     O          -0.742455           
         O12       1.0000    0.48641   0.83259   0.94779   Biso      1.000     O          -0.723071           
         O13       1.0000    0.96832   0.94849   0.37867   Biso      1.000     O          -0.48736499999999994          
         O14       1.0000    0.73321   0.33259   0.44779   Biso      1.000     O          -0.723945           
         O15       1.0000    0.26138   0.72491   0.04813   Biso      1.000     O          -0.739777           
         O16       1.0000    0.94219   0.46587   0.37895   Biso      1.000     O          -0.717404           
         O17       1.0000    0.25974   0.10265   0.98367   Biso      1.000     O          -0.6322810000000001           
         O18       1.0000    0.96558   0.22491   0.54813   Biso      1.000     O          -0.742455           
         O19       1.0000    0.83304   0.00438   0.23754   Biso      1.000     O          -0.5307189999999999           
         O20       1.0000    0.28848   0.81898   0.57486   Biso      1.000     O          -0.53699  
         O21       1.0000    0.92504   0.50438   0.73754   Biso      1.000     O          -0.528482           
         O22       1.0000    0.70452   0.44849   0.87867   Biso      1.000     O          -0.48810299999999995          
         O23       1.0000    0.78701   0.03413   0.12105   Biso      1.000     O          -0.7179409999999999           
         O24       1.0000    0.01883   0.10054   0.99520   Biso      1.000     O          -0.769387           
         O25       1.0000    0.68232   0.68102   0.92514   Biso      1.000     O          -0.536307           
         O26       1.0000    0.88543   0.60054   0.49520   Biso      1.000     O          -0.771783           
         O27       1.0000    0.65394   0.60265   0.48367   Biso      1.000     O          -0.6348729999999999           
         O28       1.0000    0.34606   0.39735   0.51633   Biso      1.000     O          -0.6348729999999999           
         O29       1.0000    0.21299   0.96587   0.87895   Biso      1.000     O          -0.7179409999999999           
         O30       1.0000    0.16696   0.99562   0.76246   Biso      1.000     O          -0.5307189999999999           
         O31       1.0000    0.98117   0.89946   0.00480   Biso      1.000     O          -0.769387           
         O32       1.0000    0.03168   0.05151   0.62133   Biso      1.000     O          -0.48736499999999994          
         Tb1       1.0000    0.15431   0.58921   0.49369   Biso      1.000     Tb          2.128882  
         Tb2       1.0000    0.84569   0.41079   0.50631   Biso      1.000     Tb          2.128882  
         Tb3       1.0000    0.23721   0.91079   0.00631   Biso      1.000     Tb          2.128022  
         Tb4       1.0000    0.76279   0.08921   0.99369   Biso      1.000     Tb          2.128022  
         Zn1       1.0000    0.80262   0.58895   0.83443   Biso      1.000     Zn          0.7758149999999999  
         Zn2       1.0000    0.19738   0.41105   0.16557   Biso      1.000     Zn          0.7758149999999999  
         Zn3       1.0000    0.22600   0.91105   0.66557   Biso      1.000     Zn          0.776474  
         Zn4       1.0000    0.77400   0.08895   0.33443   Biso      1.000     Zn          0.776474 