
##########################################################################
#               Crystallographic Information Format file
#               Produced by PyCifRW module
#
#  This is a CIF file.  CIF has been adopted by the International
#  Union of Crystallography as the standard for data archiving and
#  transmission.
#
#  For information on this file format, follow the CIF links at
#  http://www.iucr.org
##########################################################################

data_image0

_cell_length_a                          9.1816
_cell_length_b                          12.9851
_cell_length_c                          18.4627
_cell_angle_alpha                       72.0644
_cell_angle_beta                        75.6022
_cell_angle_gamma                       69.2958
_symmetry_space_group_name_H-M          'P 1'
_symmetry_int_tables_number             1
loop_
  _symmetry_equiv_pos_as_xyz
         'x, y, z' 
loop_
  _atom_site_label
  _atom_site_occupancy
  _atom_site_fract_x
  _atom_site_fract_y
  _atom_site_fract_z
  _atom_site_thermal_displace_type
  _atom_site_B_iso_or_equiv
  _atom_site_type_symbol
  _atom_site_charge
         C1        1.0000    0.89060   0.05260   0.58160   Biso      1.000     C          0.459878  
         C2        1.0000    0.10851   0.23268   0.16130   Biso      1.000     C          -0.036277           
         C3        1.0000    0.69550   0.27860   0.95740   Biso      1.000     C          0.005553  
         C4        1.0000    0.30450   0.72140   0.04260   Biso      1.000     C          0.005553  
         C5        1.0000    0.93960   0.86150   0.42830   Biso      1.000     C          0.003097  
         C6        1.0000    0.97612   0.28026   0.26630   Biso      1.000     C          0.444984  
         C7        1.0000    0.25150   0.84560   0.01980   Biso      1.000     C          0.640734  
         C8        1.0000    0.50249   0.26732   0.33870   Biso      1.000     C          -0.037149           
         C9        1.0000    0.02136   0.15758   0.20050   Biso      1.000     C          -0.033385           
         C10       1.0000    0.55575   0.26090   0.40940   Biso      1.000     C          0.632547  
         C11       1.0000    0.06850   0.77860   0.45740   Biso      1.000     C          0.010342  
         C12       1.0000    0.80780   0.96530   0.59790   Biso      1.000     C          -0.563309           
         C13       1.0000    0.62900   0.46530   0.09790   Biso      1.000     C          -0.561182           
         C14       1.0000    0.02388   0.71974   0.73370   Biso      1.000     C          0.444984  
         C15       1.0000    0.10940   0.94740   0.41840   Biso      1.000     C          0.459878  
         C16       1.0000    0.49751   0.73268   0.66130   Biso      1.000     C          -0.037149           
         C17       1.0000    0.41820   0.84230   0.82750   Biso      1.000     C          -0.576878           
         C18       1.0000    0.47520   0.55260   0.08160   Biso      1.000     C          0.460487  
         C19       1.0000    0.37100   0.53470   0.90210   Biso      1.000     C          -0.561181           
         C20       1.0000    0.24490   0.44080   0.31560   Biso      1.000     C          0.624283  
         C21       1.0000    0.77060   0.36150   0.92830   Biso      1.000     C          0.005962  
         C22       1.0000    0.06300   0.64010   0.07990   Biso      1.000     C          0.641679  
         C23       1.0000    0.11690   0.65440   0.48020   Biso      1.000     C          0.636478  
         C24       1.0000    0.93700   0.35990   0.92010   Biso      1.000     C          0.641679  
         C25       1.0000    0.37944   0.34242   0.29950   Biso      1.000     C          -0.032533           
         C26       1.0000    0.06040   0.13850   0.57170   Biso      1.000     C          0.003097  
         C27       1.0000    0.47732   0.78026   0.76630   Biso      1.000     C          0.446051  
         C28       1.0000    0.22940   0.63850   0.07170   Biso      1.000     C          0.005962  
         C29       1.0000    0.08800   0.65770   0.67250   Biso      1.000     C          -0.577865           
         C30       1.0000    0.22605   0.23910   0.09060   Biso      1.000     C          0.631482  
         C31       1.0000    0.21700   0.14010   0.57990   Biso      1.000     C          0.644164  
         C32       1.0000    0.91200   0.34230   0.32750   Biso      1.000     C          -0.577865           
         C33       1.0000    0.89149   0.76732   0.83870   Biso      1.000     C          -0.036277           
         C34       1.0000    0.52268   0.21974   0.23370   Biso      1.000     C          0.446051  
         C35       1.0000    0.52480   0.44740   0.91840   Biso      1.000     C          0.460487  
         C36       1.0000    0.75510   0.55920   0.68440   Biso      1.000     C          0.624283  
         C37       1.0000    0.78300   0.85990   0.42010   Biso      1.000     C          0.644165  
         C38       1.0000    0.93150   0.22140   0.54260   Biso      1.000     C          0.010342  
         C39       1.0000    0.19220   0.03470   0.40210   Biso      1.000     C          -0.563309           
         C40       1.0000    0.74850   0.15440   0.98020   Biso      1.000     C          0.640734  
         C41       1.0000    0.88310   0.34560   0.51980   Biso      1.000     C          0.636478  
         C42       1.0000    0.58180   0.15770   0.17250   Biso      1.000     C          -0.576879           
         C43       1.0000    0.77395   0.76090   0.90940   Biso      1.000     C          0.631482  
         C44       1.0000    0.62056   0.65758   0.70050   Biso      1.000     C          -0.032533           
         C45       1.0000    0.97864   0.84242   0.79950   Biso      1.000     C          -0.033385           
         C46       1.0000    0.00130   0.05920   0.18440   Biso      1.000     C          0.625973  
         C47       1.0000    0.99870   0.94080   0.81560   Biso      1.000     C          0.625973  
         C48       1.0000    0.44425   0.73910   0.59060   Biso      1.000     C          0.632548  
         Dy1       1.0000    0.23674   0.41071   0.50661   Biso      1.000     Dy          2.12629   
         Dy2       1.0000    0.76326   0.58929   0.49339   Biso      1.000     Dy          2.12629   
         Dy3       1.0000    0.84594   0.91071   0.00661   Biso      1.000     Dy          2.125944  
         Dy4       1.0000    0.15406   0.08929   0.99339   Biso      1.000     Dy          2.125944  
         H1        1.0000    0.17570   0.68110   0.63990   Biso      1.000     H          0.174397  
         H2        1.0000    0.75540   0.95440   0.65040   Biso      1.000     H          0.197916  
         H3        1.0000    0.24460   0.04560   0.34960   Biso      1.000     H          0.197916  
         H4        1.0000    0.49670   0.81890   0.86010   Biso      1.000     H          0.174829  
         H5        1.0000    0.71390   0.49070   0.06390   Biso      1.000     H          0.19421   
         H6        1.0000    0.46280   0.30580   0.96300   Biso      1.000     H          0.321488  
         H7        1.0000    0.39540   0.92250   0.80470   Biso      1.000     H          0.18153   
         H8        1.0000    0.26840   0.80580   0.46300   Biso      1.000     H          0.324015  
         H9        1.0000    0.63980   0.45440   0.15040   Biso      1.000     H          0.198074  
         H10       1.0000    0.67620   0.17390   0.14230   Biso      1.000     H          0.172109  
         H11       1.0000    0.87740   0.42250   0.30470   Biso      1.000     H          0.182116  
         H12       1.0000    0.63190   0.39480   0.09000   Biso      1.000     H          0.185545  
         H13       1.0000    0.28610   0.50930   0.93610   Biso      1.000     H          0.19421   
         H14       1.0000    0.36020   0.54560   0.84960   Biso      1.000     H          0.198074  
         H15       1.0000    0.36810   0.60520   0.91000   Biso      1.000     H          0.185545  
         H16       1.0000    0.32380   0.82610   0.85770   Biso      1.000     H          0.172109  
         H17       1.0000    0.26850   0.00930   0.43610   Biso      1.000     H          0.195844  
         H18       1.0000    0.73150   0.99070   0.56390   Biso      1.000     H          0.195844  
         H19       1.0000    0.82430   0.31890   0.36010   Biso      1.000     H          0.174397  
         H20       1.0000    0.50330   0.18110   0.13990   Biso      1.000     H          0.174829  
         H21       1.0000    0.88330   0.89480   0.59000   Biso      1.000     H          0.186211  
         H22       1.0000    0.60460   0.07750   0.19530   Biso      1.000     H          0.18153   
         H23       1.0000    0.12260   0.57750   0.69530   Biso      1.000     H          0.182115  
         H24       1.0000    0.99240   0.32610   0.35770   Biso      1.000     H          0.173026  
         H25       1.0000    0.11670   0.10520   0.41000   Biso      1.000     H          0.186211  
         H26       1.0000    0.53720   0.69420   0.03700   Biso      1.000     H          0.321488  
         H27       1.0000    0.00760   0.67390   0.64230   Biso      1.000     H          0.173026  
         H28       1.0000    0.73160   0.19420   0.53700   Biso      1.000     H          0.324015  
         N1        1.0000    0.66407   0.46466   0.90360   Biso      1.000     N          -0.364901           
         N2        1.0000    0.92188   0.69074   0.79570   Biso      1.000     N          -0.371306           
         N3        1.0000    0.07812   0.30926   0.20430   Biso      1.000     N          -0.371306           
         N4        1.0000    0.17385   0.83650   0.44960   Biso      1.000     N          -0.295059           
         N5        1.0000    0.96767   0.96466   0.40360   Biso      1.000     N          -0.362997           
         N6        1.0000    0.82615   0.16350   0.55040   Biso      1.000     N          -0.295059           
         N7        1.0000    0.06074   0.81091   0.73301   Biso      1.000     N          -0.3955   
         N8        1.0000    0.33593   0.53534   0.09640   Biso      1.000     N          -0.364901           
         N9        1.0000    0.54005   0.33650   0.94960   Biso      1.000     N          -0.290048           
         N10       1.0000    0.39534   0.31091   0.23301   Biso      1.000     N          -0.396132           
         N11       1.0000    0.59168   0.19074   0.29570   Biso      1.000     N          -0.372455           
         N12       1.0000    0.60466   0.68909   0.76699   Biso      1.000     N          -0.396132           
         N13       1.0000    0.45995   0.66350   0.05040   Biso      1.000     N          -0.290048           
         N14       1.0000    0.93926   0.18909   0.26699   Biso      1.000     N          -0.3955   
         N15       1.0000    0.03233   0.03534   0.59640   Biso      1.000     N          -0.362997           
         N16       1.0000    0.40832   0.80926   0.70430   Biso      1.000     N          -0.372455           
         O1        1.0000    0.03497   0.27396   0.95370   Biso      1.000     O          -0.744849           
         O2        1.0000    0.25984   0.60205   0.48327   Biso      1.000     O          -0.63435  
         O3        1.0000    0.32055   0.81934   0.57356   Biso      1.000     O          -0.543825           
         O4        1.0000    0.16401   0.49643   0.26235   Biso      1.000     O          -0.541361           
         O5        1.0000    0.73212   0.83415   0.94761   Biso      1.000     O          -0.719631           
         O6        1.0000    0.67945   0.18066   0.42644   Biso      1.000     O          -0.543825           
         O7        1.0000    0.34516   0.89795   0.01673   Biso      1.000     O          -0.635928           
         O8        1.0000    0.07721   0.99643   0.76235   Biso      1.000     O          -0.543077           
         O9        1.0000    0.94117   0.96685   0.87901   Biso      1.000     O          -0.709973           
         O10       1.0000    0.01924   0.59973   0.49519   Biso      1.000     O          -0.773491           
         O11       1.0000    0.73737   0.77396   0.45370   Biso      1.000     O          -0.7453   
         O12       1.0000    0.98076   0.40027   0.50481   Biso      1.000     O          -0.773491           
         O13       1.0000    0.05883   0.03315   0.12099   Biso      1.000     O          -0.709973           
         O14       1.0000    0.11416   0.90027   0.00481   Biso      1.000     O          -0.775068           
         O15       1.0000    0.48612   0.33415   0.44761   Biso      1.000     O          -0.719323           
         O16       1.0000    0.96503   0.72604   0.04630   Biso      1.000     O          -0.744849           
         O17       1.0000    0.88584   0.09973   0.99519   Biso      1.000     O          -0.775068           
         O18       1.0000    0.78703   0.53315   0.62099   Biso      1.000     O          -0.710584           
         O19       1.0000    0.51388   0.66585   0.55239   Biso      1.000     O          -0.719323           
         O20       1.0000    0.70262   0.94776   0.37980   Biso      1.000     O          -0.484244           
         O21       1.0000    0.03018   0.55224   0.12020   Biso      1.000     O          -0.482608           
         O22       1.0000    0.26788   0.16585   0.05239   Biso      1.000     O          -0.719631           
         O23       1.0000    0.29738   0.05224   0.62020   Biso      1.000     O          -0.484244           
         O24       1.0000    0.74016   0.39795   0.51673   Biso      1.000     O          -0.63435  
         O25       1.0000    0.28655   0.31934   0.07356   Biso      1.000     O          -0.543077           
         O26       1.0000    0.26263   0.22604   0.54630   Biso      1.000     O          -0.7453   
         O27       1.0000    0.83599   0.50357   0.73765   Biso      1.000     O          -0.541361           
         O28       1.0000    0.96982   0.44776   0.87980   Biso      1.000     O          -0.482608           
         O29       1.0000    0.71345   0.68066   0.92644   Biso      1.000     O          -0.543077           
         O30       1.0000    0.21297   0.46685   0.37901   Biso      1.000     O          -0.710584           
         O31       1.0000    0.65484   0.10205   0.98327   Biso      1.000     O          -0.635928           
         O32       1.0000    0.92279   0.00357   0.23765   Biso      1.000     O          -0.543077           
         Zn1       1.0000    0.22379   0.41138   0.16478   Biso      1.000     Zn          0.773392  
         Zn2       1.0000    0.79995   0.08862   0.33522   Biso      1.000     Zn          0.773035  
         Zn3       1.0000    0.20005   0.91138   0.66478   Biso      1.000     Zn          0.773035  
         Zn4       1.0000    0.77621   0.58862   0.83522   Biso      1.000     Zn          0.773392 