
##########################################################################
#               Crystallographic Information Format file
#               Produced by PyCifRW module
#
#  This is a CIF file.  CIF has been adopted by the International
#  Union of Crystallography as the standard for data archiving and
#  transmission.
#
#  For information on this file format, follow the CIF links at
#  http://www.iucr.org
##########################################################################

data_image0

_cell_length_a                          9.2236
_cell_length_b                          13.0421
_cell_length_c                          18.6389
_cell_angle_alpha                       72.1035
_cell_angle_beta                        75.6746
_cell_angle_gamma                       69.2918
_symmetry_space_group_name_H-M          'P 1'
_symmetry_int_tables_number             1
loop_
  _symmetry_equiv_pos_as_xyz
         'x, y, z' 
loop_
  _atom_site_label
  _atom_site_occupancy
  _atom_site_fract_x
  _atom_site_fract_y
  _atom_site_fract_z
  _atom_site_thermal_displace_type
  _atom_site_B_iso_or_equiv
  _atom_site_type_symbol
  _atom_site_charge
         C1        1.0000    0.97410   0.55250   0.08030   Biso      1.000     C          0.426044  
         C2        1.0000    0.52460   0.15840   0.20060   Biso      1.000     C          -0.017305           
         C3        1.0000    0.99410   0.73220   0.66200   Biso      1.000     C          -0.026448000000000003         
         C4        1.0000    0.43780   0.36140   0.91700   Biso      1.000     C          0.642738  
         C5        1.0000    0.71620   0.13860   0.58300   Biso      1.000     C          0.643871  
         C6        1.0000    0.80590   0.72050   0.04170   Biso      1.000     C          -0.023019           
         C7        1.0000    0.27260   0.75930   0.90830   Biso      1.000     C          0.624787  
         C8        1.0000    0.02620   0.22050   0.23330   Biso      1.000     C          0.448603  
         C9        1.0000    0.11640   0.65840   0.70060   Biso      1.000     C          -0.019081           
         C10       1.0000    0.39310   0.05250   0.58030   Biso      1.000     C          0.424634  
         C11       1.0000    0.75170   0.84510   0.02010   Biso      1.000     C          0.648154  
         C12       1.0000    0.72740   0.24070   0.09170   Biso      1.000     C          0.624787  
         C13       1.0000    0.97380   0.77950   0.76670   Biso      1.000     C          0.448603  
         C14       1.0000    0.58340   0.65910   0.67230   Biso      1.000     C          -0.575696           
         C15       1.0000    0.61170   0.23220   0.16200   Biso      1.000     C          -0.027536           
         C16       1.0000    0.12780   0.46560   0.09500   Biso      1.000     C          -0.561335           
         C17       1.0000    0.38310   0.34510   0.52010   Biso      1.000     C          0.646145  
         C18       1.0000    0.61690   0.65490   0.47990   Biso      1.000     C          0.646145  
         C19       1.0000    0.24830   0.15490   0.97990   Biso      1.000     C          0.648154  
         C20       1.0000    0.68840   0.03440   0.40500   Biso      1.000     C          -0.559761           
         C21       1.0000    0.47540   0.84160   0.79940   Biso      1.000     C          -0.017305           
         C22       1.0000    0.91480   0.84090   0.82770   Biso      1.000     C          -0.578453           
         C23       1.0000    0.43190   0.22050   0.54170   Biso      1.000     C          -0.021258000000000003         
         C24       1.0000    0.38830   0.76780   0.83800   Biso      1.000     C          -0.027536           
         C25       1.0000    0.60690   0.94750   0.41970   Biso      1.000     C          0.42463500000000004           
         C26       1.0000    0.05980   0.25930   0.40830   Biso      1.000     C          0.622632  
         C27       1.0000    0.74790   0.43950   0.31510   Biso      1.000     C          0.61452   
         C28       1.0000    0.87220   0.53440   0.90500   Biso      1.000     C          -0.561335           
         C29       1.0000    0.48000   0.27950   0.26670   Biso      1.000     C          0.447513  
         C30       1.0000    0.41660   0.34090   0.32770   Biso      1.000     C          -0.575696           
         C31       1.0000    0.55990   0.13720   0.57300   Biso      1.000     C          -0.016217           
         C32       1.0000    0.19410   0.27950   0.95830   Biso      1.000     C          -0.023019           
         C33       1.0000    0.52000   0.72050   0.73330   Biso      1.000     C          0.447514  
         C34       1.0000    0.49750   0.93950   0.81510   Biso      1.000     C          0.611687  
         C35       1.0000    0.25210   0.56050   0.68490   Biso      1.000     C          0.61452   
         C36       1.0000    0.44010   0.86280   0.42700   Biso      1.000     C          -0.016217           
         C37       1.0000    0.02590   0.44750   0.91970   Biso      1.000     C          0.426044  
         C38       1.0000    0.56810   0.77950   0.45830   Biso      1.000     C          -0.021258000000000003         
         C39       1.0000    0.08520   0.15910   0.17230   Biso      1.000     C          -0.578453           
         C40       1.0000    0.50250   0.06050   0.18490   Biso      1.000     C          0.611687  
         C41       1.0000    0.72990   0.63720   0.07300   Biso      1.000     C          -0.014096000000000001         
         C42       1.0000    0.31160   0.96560   0.59500   Biso      1.000     C          -0.559761           
         C43       1.0000    0.56220   0.63860   0.08300   Biso      1.000     C          0.642738  
         C44       1.0000    0.88360   0.34160   0.29940   Biso      1.000     C          -0.019081           
         C45       1.0000    0.27010   0.36280   0.92700   Biso      1.000     C          -0.014096000000000001         
         C46       1.0000    0.94020   0.74070   0.59170   Biso      1.000     C          0.622632  
         C47       1.0000    0.28380   0.86140   0.41700   Biso      1.000     C          0.643871  
         C48       1.0000    0.00590   0.26780   0.33800   Biso      1.000     C          -0.026448000000000003         
         Gd1       1.0000    0.26255   0.58914   0.49308   Biso      1.000     Gd          2.117532  
         Gd2       1.0000    0.65523   0.08914   0.99308   Biso      1.000     Gd          2.118099  
         Gd3       1.0000    0.73745   0.41086   0.50692   Biso      1.000     Gd          2.117532  
         Gd4       1.0000    0.34477   0.91086   0.00692   Biso      1.000     Gd          2.118099  
         H1        1.0000    0.18890   0.16310   0.14910   Biso      1.000     H          0.180777  
         H2        1.0000    0.08820   0.08160   0.19360   Biso      1.000     H          0.187139  
         H3        1.0000    0.38580   0.89790   0.58270   Biso      1.000     H          0.174309  
         H4        1.0000    0.13360   0.39790   0.08270   Biso      1.000     H          0.175347  
         H5        1.0000    0.13670   0.44910   0.14790   Biso      1.000     H          0.189032  
         H6        1.0000    0.73370   0.05090   0.35210   Biso      1.000     H          0.189081  
         H7        1.0000    0.86330   0.55090   0.85210   Biso      1.000     H          0.189032  
         H8        1.0000    0.26630   0.94910   0.64790   Biso      1.000     H          0.189081  
         H9        1.0000    0.50110   0.33690   0.35090   Biso      1.000     H          0.180146  
         H10       1.0000    0.91180   0.91840   0.80640   Biso      1.000     H          0.187139  
         H11       1.0000    0.36340   0.41840   0.30640   Biso      1.000     H          0.185355  
         H12       1.0000    0.98320   0.80700   0.86560   Biso      1.000     H          0.182117  
         H13       1.0000    0.23030   0.99380   0.56400   Biso      1.000     H          0.194931  
         H14       1.0000    0.63660   0.58160   0.69360   Biso      1.000     H          0.185355  
         H15       1.0000    0.81110   0.83690   0.85090   Biso      1.000     H          0.180777  
         H16       1.0000    0.21190   0.49380   0.06400   Biso      1.000     H          0.195214  
         H17       1.0000    0.78810   0.50620   0.93600   Biso      1.000     H          0.195214  
         H18       1.0000    0.34420   0.30700   0.36560   Biso      1.000     H          0.18189   
         H19       1.0000    0.01680   0.19300   0.13440   Biso      1.000     H          0.182117  
         H20       1.0000    0.76970   0.00620   0.43600   Biso      1.000     H          0.194931  
         H21       1.0000    0.65580   0.69300   0.63440   Biso      1.000     H          0.18189   
         H22       1.0000    0.61420   0.10210   0.41730   Biso      1.000     H          0.174309  
         H23       1.0000    0.86640   0.60210   0.91730   Biso      1.000     H          0.175347  
         H24       1.0000    0.49890   0.66310   0.64910   Biso      1.000     H          0.180146  
         N1        1.0000    0.58310   0.30780   0.20460   Biso      1.000     N          -0.363779           
         N2        1.0000    0.46790   0.96530   0.40290   Biso      1.000     N          -0.339192           
         N3        1.0000    0.16390   0.46530   0.90290   Biso      1.000     N          -0.341828           
         N4        1.0000    0.03880   0.33750   0.95150   Biso      1.000     N          -0.213939           
         N5        1.0000    0.32780   0.16250   0.54850   Biso      1.000     N          -0.21506  
         N6        1.0000    0.96120   0.66250   0.04850   Biso      1.000     N          -0.213937           
         N7        1.0000    0.67220   0.83750   0.45150   Biso      1.000     N          -0.215061           
         N8        1.0000    0.09550   0.19220   0.29540   Biso      1.000     N          -0.364103           
         N9        1.0000    0.41690   0.69220   0.79540   Biso      1.000     N          -0.363779           
         N10       1.0000    0.83610   0.53470   0.09710   Biso      1.000     N          -0.341828           
         N11       1.0000    0.90450   0.80780   0.70460   Biso      1.000     N          -0.364103           
         N12       1.0000    0.10200   0.68940   0.76600   Biso      1.000     N          -0.374104           
         N13       1.0000    0.44260   0.18940   0.26600   Biso      1.000     N          -0.37292800000000004          
         N14       1.0000    0.53210   0.03470   0.59710   Biso      1.000     N          -0.339192           
         N15       1.0000    0.55740   0.81060   0.73400   Biso      1.000     N          -0.37292800000000004          
         N16       1.0000    0.89800   0.31060   0.23400   Biso      1.000     N          -0.374104           
         O1        1.0000    0.51837   0.60116   0.49490   Biso      1.000     O          -0.7797470000000001           
         O2        1.0000    0.66640   0.49450   0.26270   Biso      1.000     O          -0.512849           
         O3        1.0000    0.20520   0.94870   0.37790   Biso      1.000     O          -0.44170299999999996          
         O4        1.0000    0.01310   0.66980   0.55200   Biso      1.000     O          -0.6796409999999999           
         O5        1.0000    0.15340   0.10360   0.98460   Biso      1.000     O          -0.62025  
         O6        1.0000    0.81680   0.82000   0.57500   Biso      1.000     O          -0.46017700000000006          
         O7        1.0000    0.57640   0.99450   0.76270   Biso      1.000     O          -0.511264           
         O8        1.0000    0.84660   0.89640   0.01540   Biso      1.000     O          -0.62025  
         O9        1.0000    0.61443   0.89884   0.00510   Biso      1.000     O          -0.78061  
         O10       1.0000    0.76030   0.22460   0.55060   Biso      1.000     O          -0.7207560000000001           
         O11       1.0000    0.23970   0.77540   0.44940   Biso      1.000     O          -0.7207560000000001           
         O12       1.0000    0.18320   0.18000   0.42500   Biso      1.000     O          -0.46017600000000003          
         O13       1.0000    0.46820   0.44870   0.87790   Biso      1.000     O          -0.440855           
         O14       1.0000    0.23490   0.83020   0.94800   Biso      1.000     O          -0.680343           
         O15       1.0000    0.44060   0.96480   0.87900   Biso      1.000     O          -0.693542           
         O16       1.0000    0.24160   0.39640   0.51540   Biso      1.000     O          -0.619258           
         O17       1.0000    0.55940   0.03520   0.12100   Biso      1.000     O          -0.693542           
         O18       1.0000    0.98690   0.33020   0.44800   Biso      1.000     O          -0.6796409999999999           
         O19       1.0000    0.76510   0.16980   0.05200   Biso      1.000     O          -0.680343           
         O20       1.0000    0.46450   0.72460   0.05060   Biso      1.000     O          -0.721332           
         O21       1.0000    0.21180   0.68000   0.92500   Biso      1.000     O          -0.461951           
         O22       1.0000    0.28440   0.53520   0.62100   Biso      1.000     O          -0.6937909999999999           
         O23       1.0000    0.53180   0.55130   0.12210   Biso      1.000     O          -0.440854           
         O24       1.0000    0.33360   0.50550   0.73730   Biso      1.000     O          -0.512849           
         O25       1.0000    0.75840   0.60360   0.48460   Biso      1.000     O          -0.619258           
         O26       1.0000    0.79480   0.05130   0.62210   Biso      1.000     O          -0.44170299999999996          
         O27       1.0000    0.71560   0.46480   0.37900   Biso      1.000     O          -0.6937909999999999           
         O28       1.0000    0.53550   0.27540   0.94940   Biso      1.000     O          -0.721332           
         O29       1.0000    0.42360   0.00550   0.23730   Biso      1.000     O          -0.511264           
         O30       1.0000    0.78820   0.32000   0.07500   Biso      1.000     O          -0.461951           
         O31       1.0000    0.38557   0.10116   0.99490   Biso      1.000     O          -0.78061  
         O32       1.0000    0.48163   0.39884   0.50510   Biso      1.000     O          -0.7797470000000001           
         Zn1       1.0000    0.69693   0.91054   0.66610   Biso      1.000     Zn          0.7948310000000001  
         Zn2       1.0000    0.30307   0.08946   0.33390   Biso      1.000     Zn          0.7948310000000001  
         Zn3       1.0000    0.27357   0.58946   0.83390   Biso      1.000     Zn          0.796075  
         Zn4       1.0000    0.72643   0.41054   0.16610   Biso      1.000     Zn          0.796076 