
##########################################################################
#               Crystallographic Information Format file
#               Produced by PyCifRW module
#
#  This is a CIF file.  CIF has been adopted by the International
#  Union of Crystallography as the standard for data archiving and
#  transmission.
#
#  For information on this file format, follow the CIF links at
#  http://www.iucr.org
##########################################################################

data_image0

_cell_length_a                          10.5841
_cell_length_b                          10.5841
_cell_length_c                          12.2246
_cell_angle_alpha                       90
_cell_angle_beta                        90
_cell_angle_gamma                       112.854
_symmetry_space_group_name_H-M          'P 1'
_symmetry_int_tables_number             1
loop_
  _symmetry_equiv_pos_as_xyz
         'x, y, z' 
loop_
  _atom_site_label
  _atom_site_occupancy
  _atom_site_fract_x
  _atom_site_fract_y
  _atom_site_fract_z
  _atom_site_thermal_displace_type
  _atom_site_B_iso_or_equiv
  _atom_site_type_symbol
  _atom_site_charge
         Ag1       1.0000    0.75429   0.24571   0.75789   Biso      1.000     Ag          0.158793  
         Ag2       1.0000    0.74571   0.25429   0.25789   Biso      1.000     Ag          0.158782  
         Ag3       1.0000    0.25429   0.74571   0.74211   Biso      1.000     Ag          0.158782  
         Ag4       1.0000    0.24571   0.75429   0.24211   Biso      1.000     Ag          0.158797  
         C1        1.0000    0.23710   0.25130   0.08950   Biso      1.000     C          0.097995  
         C2        1.0000    0.74870   0.76290   0.08950   Biso      1.000     C          0.097996  
         C3        1.0000    0.87470   0.87690   0.09400   Biso      1.000     C          -0.185717           
         C4        1.0000    0.06180   0.06180   0.00000   Biso      1.000     C          0.119736  
         C5        1.0000    0.12310   0.12530   0.09400   Biso      1.000     C          -0.185707           
         C6        1.0000    0.26290   0.24870   0.58950   Biso      1.000     C          0.097956  
         C7        1.0000    0.37690   0.37470   0.59400   Biso      1.000     C          -0.185745           
         C8        1.0000    0.24870   0.26290   0.41050   Biso      1.000     C          0.097955  
         C9        1.0000    0.37470   0.37690   0.40600   Biso      1.000     C          -0.185744           
         C10       1.0000    0.25130   0.23710   0.91050   Biso      1.000     C          0.097994  
         C11       1.0000    0.64900   0.35100   0.83110   Biso      1.000     C          -0.015083           
         C12       1.0000    0.62530   0.62310   0.59400   Biso      1.000     C          -0.185745           
         C13       1.0000    0.85860   0.14140   0.68310   Biso      1.000     C          -0.019393           
         C14       1.0000    0.85100   0.14900   0.33110   Biso      1.000     C          -0.015118           
         C15       1.0000    0.64140   0.35860   0.18310   Biso      1.000     C          -0.019361           
         C16       1.0000    0.14900   0.85100   0.66890   Biso      1.000     C          -0.015118           
         C17       1.0000    0.35860   0.64140   0.81690   Biso      1.000     C          -0.019361           
         C18       1.0000    0.35100   0.64900   0.16890   Biso      1.000     C          -0.015084           
         C19       1.0000    0.14140   0.85860   0.31690   Biso      1.000     C          -0.019393           
         C20       1.0000    0.12530   0.12310   0.90600   Biso      1.000     C          -0.185707           
         C21       1.0000    0.75130   0.73710   0.58950   Biso      1.000     C          0.097956  
         C22       1.0000    0.87690   0.87470   0.90600   Biso      1.000     C          -0.185716           
         C23       1.0000    0.73710   0.75130   0.41050   Biso      1.000     C          0.097957  
         C24       1.0000    0.43820   0.43820   0.50000   Biso      1.000     C          0.119754  
         C25       1.0000    0.62310   0.62530   0.40600   Biso      1.000     C          -0.185745           
         C26       1.0000    0.56180   0.56180   0.50000   Biso      1.000     C          0.119755  
         C27       1.0000    0.93820   0.93820   0.00000   Biso      1.000     C          0.119753  
         C28       1.0000    0.76290   0.74870   0.91050   Biso      1.000     C          0.097995  
         H1        1.0000    0.30080   0.26680   0.84420   Biso      1.000     H          0.085903  
         H2        1.0000    0.73320   0.69920   0.84420   Biso      1.000     H          0.085903  
         H3        1.0000    0.91100   0.91540   0.83730   Biso      1.000     H          0.125055  
         H4        1.0000    0.76680   0.80080   0.34420   Biso      1.000     H          0.085882  
         H5        1.0000    0.58900   0.58460   0.33730   Biso      1.000     H          0.125048  
         H6        1.0000    0.80080   0.76680   0.65580   Biso      1.000     H          0.085882  
         H7        1.0000    0.58460   0.58900   0.66270   Biso      1.000     H          0.125048  
         H8        1.0000    0.69920   0.73320   0.15580   Biso      1.000     H          0.085902  
         H9        1.0000    0.91540   0.91100   0.16270   Biso      1.000     H          0.125055  
         H10       1.0000    0.08900   0.08460   0.16270   Biso      1.000     H          0.125054  
         H11       1.0000    0.23320   0.19920   0.65580   Biso      1.000     H          0.085882  
         H12       1.0000    0.41100   0.41540   0.66270   Biso      1.000     H          0.125048  
         H13       1.0000    0.19920   0.23320   0.34420   Biso      1.000     H          0.085882  
         H14       1.0000    0.41540   0.41100   0.33730   Biso      1.000     H          0.125048  
         H15       1.0000    0.08460   0.08900   0.83730   Biso      1.000     H          0.125054  
         H16       1.0000    0.26680   0.30080   0.15580   Biso      1.000     H          0.085903  
         Mn1       1.0000    0.50000   0.50000   0.00000   Biso      1.000     Mn          0.799272  
         Mn2       1.0000    0.00000   0.00000   0.50000   Biso      1.000     Mn          0.799118  
         N1        1.0000    0.59280   0.40720   0.87650   Biso      1.000     N          -0.342937           
         N2        1.0000    0.91420   0.08580   0.63260   Biso      1.000     N          -0.347341           
         N3        1.0000    0.90720   0.09280   0.37650   Biso      1.000     N          -0.342894           
         N4        1.0000    0.58580   0.41420   0.13260   Biso      1.000     N          -0.347389           
         N5        1.0000    0.09280   0.90720   0.62350   Biso      1.000     N          -0.342894           
         N6        1.0000    0.41420   0.58580   0.86740   Biso      1.000     N          -0.347389           
         N7        1.0000    0.40720   0.59280   0.12350   Biso      1.000     N          -0.342937           
         N8        1.0000    0.08580   0.91420   0.36740   Biso      1.000     N          -0.347341           
         N9        1.0000    0.69560   0.69560   0.00000   Biso      1.000     N          -0.199775           
         N10       1.0000    0.80440   0.80440   0.50000   Biso      1.000     N          -0.199744           
         N11       1.0000    0.30440   0.30440   0.00000   Biso      1.000     N          -0.199775           
         N12       1.0000    0.19560   0.19560   0.50000   Biso      1.000     N          -0.199744 