
##########################################################################
#               Crystallographic Information Format file
#               Produced by PyCifRW module
#
#  This is a CIF file.  CIF has been adopted by the International
#  Union of Crystallography as the standard for data archiving and
#  transmission.
#
#  For information on this file format, follow the CIF links at
#  http://www.iucr.org
##########################################################################

data_image0

_cell_length_a                          11.0969
_cell_length_b                          13.4016
_cell_length_c                          15.9315
_cell_angle_alpha                       65.1275
_cell_angle_beta                        69.6185
_cell_angle_gamma                       90
_symmetry_space_group_name_H-M          'P 1'
_symmetry_int_tables_number             1
loop_
  _symmetry_equiv_pos_as_xyz
         'x, y, z' 
loop_
  _atom_site_label
  _atom_site_occupancy
  _atom_site_fract_x
  _atom_site_fract_y
  _atom_site_fract_z
  _atom_site_thermal_displace_type
  _atom_site_B_iso_or_equiv
  _atom_site_type_symbol
  _atom_site_charge
         C1        1.0000    0.37960   0.13050   0.55920   Biso      1.000     C          0.000757  
         C2        1.0000    0.04270   0.83930   0.48280   Biso      1.000     C          0.515255  
         C3        1.0000    0.93880   0.86950   0.44080   Biso      1.000     C          0.000153  
         C4        1.0000    0.35970   0.98330   0.26400   Biso      1.000     C          -0.001956           
         C5        1.0000    0.49610   0.96280   0.21840   Biso      1.000     C          0.515777  
         C6        1.0000    0.52550   0.16070   0.51720   Biso      1.000     C          0.514007  
         C7        1.0000    0.62370   0.01670   0.73600   Biso      1.000     C          -0.00281  
         C8        1.0000    0.71450   0.03720   0.78160   Biso      1.000     C          0.51622   
         C9        1.0000    0.02550   0.32210   0.51720   Biso      1.000     C          0.512957  
         C10       1.0000    0.87960   0.31030   0.55920   Biso      1.000     C          0.000727  
         C11       1.0000    0.12370   0.24730   0.73600   Biso      1.000     C          -0.0019   
         C12       1.0000    0.21450   0.18120   0.78160   Biso      1.000     C          0.516314  
         C13       1.0000    0.54270   0.67790   0.48280   Biso      1.000     C          0.513165  
         C14       1.0000    0.43880   0.68970   0.44080   Biso      1.000     C          0.000554  
         C15       1.0000    0.99610   0.81880   0.21840   Biso      1.000     C          0.515454  
         C16       1.0000    0.85970   0.75270   0.26400   Biso      1.000     C          -0.002127           
         Ce1       1.0000    0.02760   0.62740   0.44400   Biso      1.000     Ce          2.087015  
         Ce2       1.0000    0.49820   0.00000   0.00000   Biso      1.000     Ce          2.189614  
         Ce3       1.0000    0.47160   0.37260   0.55600   Biso      1.000     Ce          2.087825  
         Ce4       1.0000    0.97160   0.07140   0.55600   Biso      1.000     Ce          2.087918  
         Ce5       1.0000    0.52760   0.92860   0.44400   Biso      1.000     Ce          2.087553  
         Ce6       1.0000    0.99820   0.00000   0.00000   Biso      1.000     Ce          2.189993  
         O1        1.0000    0.13340   0.01640   0.63060   Biso      1.000     O          -0.763821           
         O2        1.0000    0.69730   0.01920   0.64320   Biso      1.000     O          -0.255031           
         O3        1.0000    0.83350   0.07450   0.72080   Biso      1.000     O          -0.583077           
         O4        1.0000    0.45540   0.20510   0.15300   Biso      1.000     O          -0.458478           
         O5        1.0000    0.60840   0.79490   0.84700   Biso      1.000     O          -0.459034           
         O6        1.0000    0.43540   0.85500   0.77520   Biso      1.000     O          -0.412346           
         O7        1.0000    0.69620   0.96540   0.87100   Biso      1.000     O          -0.597844           
         O8        1.0000    0.43480   0.89220   0.91780   Biso      1.000     O          -0.858117           
         O9        1.0000    0.80130   0.39500   0.69400   Biso      1.000     O          -0.50036  
         O10       1.0000    0.08070   0.23820   0.55020   Biso      1.000     O          -0.507179           
         O11       1.0000    0.08840   0.41530   0.49740   Biso      1.000     O          -0.50489  
         O12       1.0000    0.31340   0.95750   0.52400   Biso      1.000     O          -0.737938           
         O13       1.0000    0.30970   0.21800   0.54740   Biso      1.000     O          -0.324254           
         O14       1.0000    0.30130   0.91100   0.69400   Biso      1.000     O          -0.50025  
         O15       1.0000    0.58070   0.21160   0.55020   Biso      1.000     O          -0.507664           
         O16       1.0000    0.21060   0.14500   0.22480   Biso      1.000     O          -0.41176  
         O17       1.0000    0.35260   0.10780   0.08220   Biso      1.000     O          -0.85749  
         O18       1.0000    0.56720   0.03460   0.12900   Biso      1.000     O          -0.597386           
         O19       1.0000    0.80970   0.23460   0.54740   Biso      1.000     O          -0.324868           
         O20       1.0000    0.08580   0.91270   0.50260   Biso      1.000     O          -0.505856           
         O21       1.0000    0.85710   0.78200   0.45260   Biso      1.000     O          -0.324076           
         O22       1.0000    0.83740   0.04250   0.47600   Biso      1.000     O          -0.737544           
         O23       1.0000    0.76400   0.98360   0.36940   Biso      1.000     O          -0.763387           
         O24       1.0000    0.34050   0.98080   0.35680   Biso      1.000     O          -0.255752           
         O25       1.0000    0.55430   0.92550   0.27920   Biso      1.000     O          -0.583    
         O26       1.0000    0.58840   0.08730   0.49740   Biso      1.000     O          -0.505544           
         O27       1.0000    0.81340   0.51850   0.52400   Biso      1.000     O          -0.737535           
         O28       1.0000    0.35710   0.76540   0.45260   Biso      1.000     O          -0.324252           
         O29       1.0000    0.19730   0.33760   0.64320   Biso      1.000     O          -0.255757           
         O30       1.0000    0.85260   0.81000   0.08220   Biso      1.000     O          -0.857702           
         O31       1.0000    0.06720   0.83640   0.12900   Biso      1.000     O          -0.597252           
         O32       1.0000    0.71060   0.63020   0.22480   Biso      1.000     O          -0.411601           
         O33       1.0000    0.95540   0.64190   0.15300   Biso      1.000     O          -0.458404           
         O34       1.0000    0.63340   0.35300   0.63060   Biso      1.000     O          -0.763727           
         O35       1.0000    0.84050   0.66240   0.35680   Biso      1.000     O          -0.255848           
         O36       1.0000    0.26400   0.64700   0.36940   Biso      1.000     O          -0.763123           
         O37       1.0000    0.33740   0.48150   0.47600   Biso      1.000     O          -0.737064           
         O38       1.0000    0.05430   0.79530   0.27920   Biso      1.000     O          -0.58262  
         O39       1.0000    0.58580   0.58470   0.50260   Biso      1.000     O          -0.504954           
         O40       1.0000    0.13090   0.78840   0.44980   Biso      1.000     O          -0.508262           
         O41       1.0000    0.33350   0.20470   0.72080   Biso      1.000     O          -0.583386           
         O42       1.0000    0.10840   0.35810   0.84700   Biso      1.000     O          -0.458619           
         O43       1.0000    0.93540   0.36980   0.77520   Biso      1.000     O          -0.412352           
         O44       1.0000    0.99530   0.08900   0.30600   Biso      1.000     O          -0.500038           
         O45       1.0000    0.93480   0.19000   0.91780   Biso      1.000     O          -0.857957           
         O46       1.0000    0.49530   0.60500   0.30600   Biso      1.000     O          -0.500265           
         O47       1.0000    0.63090   0.76180   0.44980   Biso      1.000     O          -0.507328           
         O48       1.0000    0.19620   0.16360   0.87100   Biso      1.000     O          -0.597681           
         P1        1.0000    0.34330   0.11720   0.17700   Biso      1.000     P          1.135172  
         P2        1.0000    0.27740   0.00050   0.60420   Biso      1.000     P          1.157142  
         P3        1.0000    0.52030   0.88280   0.82300   Biso      1.000     P          1.137082  
         P4        1.0000    0.77740   0.39530   0.60420   Biso      1.000     P          1.157377  
         P5        1.0000    0.02030   0.29420   0.82300   Biso      1.000     P          1.13604   
         P6        1.0000    0.38160   0.60470   0.39580   Biso      1.000     P          1.155983  
         P7        1.0000    0.84330   0.70580   0.17700   Biso      1.000     P          1.135088  
         P8        1.0000    0.88160   0.99950   0.39580   Biso      1.000     P          1.156322 