
##########################################################################
#               Crystallographic Information Format file
#               Produced by PyCifRW module
#
#  This is a CIF file.  CIF has been adopted by the International
#  Union of Crystallography as the standard for data archiving and
#  transmission.
#
#  For information on this file format, follow the CIF links at
#  http://www.iucr.org
##########################################################################

data_image0

_cell_length_a                          10.224
_cell_length_b                          11.2172
_cell_length_c                          11.3302
_cell_angle_alpha                       69.059
_cell_angle_beta                        76.93
_cell_angle_gamma                       88.666
_symmetry_space_group_name_H-M          'P 1'
_symmetry_int_tables_number             1
loop_
  _symmetry_equiv_pos_as_xyz
         'x, y, z' 
loop_
  _atom_site_label
  _atom_site_occupancy
  _atom_site_fract_x
  _atom_site_fract_y
  _atom_site_fract_z
  _atom_site_thermal_displace_type
  _atom_site_B_iso_or_equiv
  _atom_site_type_symbol
  _atom_site_charge
         C1        1.0000    0.04320   0.16520   0.12400   Biso      1.000     C          0.587902  
         C2        1.0000    0.23070   0.08290   0.85220   Biso      1.000     C          0.119648  
         C3        1.0000    0.15930   0.12730   0.75790   Biso      1.000     C          -0.300187           
         C4        1.0000    0.04670   0.19920   0.77610   Biso      1.000     C          0.406198  
         C5        1.0000    0.00500   0.20510   0.90160   Biso      1.000     C          -0.269443           
         C6        1.0000    0.08130   0.15600   0.99170   Biso      1.000     C          0.12731199999999998           
         C7        1.0000    0.35700   0.01370   0.83190   Biso      1.000     C          0.573549  
         C8        1.0000    0.64300   0.98630   0.16810   Biso      1.000     C          0.573549  
         C9        1.0000    0.71420   0.54390   0.36530   Biso      1.000     C          0.149598  
         C10       1.0000    0.62670   0.55580   0.28750   Biso      1.000     C          -0.294833           
         C11       1.0000    0.51630   0.63390   0.29450   Biso      1.000     C          0.405061  
         C12       1.0000    0.50140   0.69010   0.38930   Biso      1.000     C          -0.266941           
         C13       1.0000    0.59640   0.67500   0.46100   Biso      1.000     C          0.137504  
         C14       1.0000    0.82850   0.45640   0.36740   Biso      1.000     C          0.581271  
         C15       1.0000    0.58610   0.73760   0.56070   Biso      1.000     C          0.589036  
         C16       1.0000    0.76930   0.91710   0.14780   Biso      1.000     C          0.119648  
         C17       1.0000    0.84070   0.87270   0.24210   Biso      1.000     C          -0.300187           
         C18       1.0000    0.95330   0.80080   0.22390   Biso      1.000     C          0.406198  
         C19       1.0000    0.99500   0.79490   0.09840   Biso      1.000     C          -0.269443           
         C20       1.0000    0.91870   0.84400   0.00830   Biso      1.000     C          0.12731199999999998           
         C21       1.0000    0.41390   0.26240   0.43930   Biso      1.000     C          0.589036  
         C22       1.0000    0.17150   0.54360   0.63260   Biso      1.000     C          0.58127   
         C23       1.0000    0.95680   0.83480   0.87600   Biso      1.000     C          0.587902  
         C24       1.0000    0.49860   0.30990   0.61070   Biso      1.000     C          -0.266941           
         C25       1.0000    0.48370   0.36610   0.70550   Biso      1.000     C          0.405062  
         C26       1.0000    0.37330   0.44420   0.71250   Biso      1.000     C          -0.29484499999999997          
         C27       1.0000    0.28580   0.45610   0.63470   Biso      1.000     C          0.149608  
         C28       1.0000    0.40360   0.32500   0.53900   Biso      1.000     C          0.137504  
         Cd1       1.0000    0.11656   0.36480   0.47451   Biso      1.000     Cd          0.9972549999999999  
         Cd2       1.0000    0.66101   0.94091   0.89664   Biso      1.000     Cd          0.692505  
         Cd3       1.0000    0.72536   0.20400   0.28745   Biso      1.000     Cd          1.031308  
         Cd4       1.0000    0.27464   0.79600   0.71255   Biso      1.000     Cd          1.031308  
         Cd5       1.0000    0.33899   0.05909   0.10336   Biso      1.000     Cd          0.692505  
         Cd6       1.0000    0.88344   0.63520   0.52549   Biso      1.000     Cd          0.9972549999999999  
         H1        1.0000    0.63950   0.51250   0.22990   Biso      1.000     H          0.14432999999999999           
         H2        1.0000    0.81480   0.89010   0.31820   Biso      1.000     H          0.13986500000000002           
         H3        1.0000    0.42740   0.73730   0.40330   Biso      1.000     H          0.15878299999999998           
         H4        1.0000    0.07460   0.75760   0.07670   Biso      1.000     H          0.146044  
         H5        1.0000    0.52420   0.32370   0.85720   Biso      1.000     H          0.394471  
         H6        1.0000    0.47580   0.67630   0.14280   Biso      1.000     H          0.39447   
         H7        1.0000    0.57260   0.26270   0.59670   Biso      1.000     H          0.15878299999999998           
         H8        1.0000    0.36050   0.48750   0.77010   Biso      1.000     H          0.144331  
         H9        1.0000    0.18520   0.10990   0.68180   Biso      1.000     H          0.13986500000000002           
         H10       1.0000    0.92540   0.24240   0.92330   Biso      1.000     H          0.146044  
         N1        1.0000    0.80370   0.89984   0.03320   Biso      1.000     N          -0.335365           
         N2        1.0000    0.29630   0.39407   0.55144   Biso      1.000     N          -0.332425           
         N3        1.0000    0.19630   0.10016   0.96680   Biso      1.000     N          -0.335364           
         N4        1.0000    0.70370   0.60593   0.44856   Biso      1.000     N          -0.332424           
         O1        1.0000    0.47850   0.78403   0.59162   Biso      1.000     O          -0.574901           
         O2        1.0000    0.98483   0.25656   0.68275   Biso      1.000     O          -0.569345           
         O3        1.0000    0.08872   0.53962   0.56637   Biso      1.000     O          -0.539937           
         O4        1.0000    0.16680   0.61831   0.69431   Biso      1.000     O          -0.582094           
         O5        1.0000    0.52150   0.21597   0.40838   Biso      1.000     O          -0.574901           
         O6        1.0000    0.31290   0.26293   0.39342   Biso      1.000     O          -0.5561020000000001           
         O7        1.0000    0.12590   0.13250   0.19481   Biso      1.000     O          -0.535033           
         O8        1.0000    0.56676   0.34796   0.78131   Biso      1.000     O          -0.491113           
         O9        1.0000    0.93060   0.20643   0.15612   Biso      1.000     O          -0.595503           
         O10       1.0000    0.43786   0.00952   0.90243   Biso      1.000     O          -0.555662           
         O11       1.0000    0.37414   0.96596   0.74500   Biso      1.000     O          -0.582754           
         O12       1.0000    0.01517   0.74344   0.31725   Biso      1.000     O          -0.569345           
         O13       1.0000    0.87410   0.86750   0.80519   Biso      1.000     O          -0.535033           
         O14       1.0000    0.06940   0.79357   0.84388   Biso      1.000     O          -0.595503           
         O15       1.0000    0.62586   0.03404   0.25500   Biso      1.000     O          -0.582754           
         O16       1.0000    0.91128   0.46038   0.43363   Biso      1.000     O          -0.539938           
         O17       1.0000    0.43324   0.65204   0.21869   Biso      1.000     O          -0.491113           
         O18       1.0000    0.68710   0.73707   0.60658   Biso      1.000     O          -0.5561020000000001           
         O19       1.0000    0.83320   0.38169   0.30569   Biso      1.000     O          -0.582094           
         O20       1.0000    0.56214   0.99048   0.09757   Biso      1.000     O          -0.555662 