
##########################################################################
#               Crystallographic Information Format file
#               Produced by PyCifRW module
#
#  This is a CIF file.  CIF has been adopted by the International
#  Union of Crystallography as the standard for data archiving and
#  transmission.
#
#  For information on this file format, follow the CIF links at
#  http://www.iucr.org
##########################################################################

data_image0

_cell_length_a                          18.478
_cell_length_b                          12.181
_cell_length_c                          23.055
_cell_angle_alpha                       90
_cell_angle_beta                        90
_cell_angle_gamma                       90
_symmetry_space_group_name_H-M          'P 1'
_symmetry_int_tables_number             1
loop_
  _symmetry_equiv_pos_as_xyz
         'x, y, z' 
loop_
  _atom_site_label
  _atom_site_occupancy
  _atom_site_fract_x
  _atom_site_fract_y
  _atom_site_fract_z
  _atom_site_thermal_displace_type
  _atom_site_B_iso_or_equiv
  _atom_site_type_symbol
  _atom_site_charge
         C1        1.0000    0.91290   0.93080   0.59870   Biso      1.000     C          0.072644  
         C2        1.0000    0.82100   0.68370   0.39522   Biso      1.000     C          0.598364  
         C3        1.0000    0.06000   0.33970   0.99750   Biso      1.000     C          -0.157046           
         C4        1.0000    0.11040   0.37110   0.95425   Biso      1.000     C          0.086825  
         C5        1.0000    0.16310   0.63130   0.79075   Biso      1.000     C          0.606381  
         C6        1.0000    0.92330   0.43500   0.80240   Biso      1.000     C          0.625759  
         C7        1.0000    0.01900   0.41010   0.87760   Biso      1.000     C          -0.153976           
         C8        1.0000    0.08710   0.43080   0.90130   Biso      1.000     C          0.072645  
         C9        1.0000    0.13380   0.50180   0.87270   Biso      1.000     C          -0.150497           
         C10       1.0000    0.11230   0.55520   0.82140   Biso      1.000     C          -0.017225           
         C11       1.0000    0.04270   0.53520   0.79917   Biso      1.000     C          -0.120374           
         C12       1.0000    0.99700   0.46400   0.82732   Biso      1.000     C          -0.022447           
         C13       1.0000    0.69060   0.68190   0.11105   Biso      1.000     C          0.583318  
         C14       1.0000    0.69000   0.84530   0.97120   Biso      1.000     C          -0.153795           
         C15       1.0000    0.88600   0.96270   0.32500   Biso      1.000     C          -0.010552           
         C16       1.0000    0.95390   0.98980   0.30145   Biso      1.000     C          -0.120545           
         C17       1.0000    0.81710   0.85140   0.53430   Biso      1.000     C          -0.153506           
         C18       1.0000    0.99770   0.06580   0.32904   Biso      1.000     C          -0.018973           
         C19       1.0000    0.79690   0.79060   0.48600   Biso      1.000     C          -0.094338           
         C20       1.0000    0.91710   0.77740   0.45360   Biso      1.000     C          -0.097561           
         C21       1.0000    0.40870   0.25030   0.45420   Biso      1.000     C          -0.093144           
         C22       1.0000    0.33560   0.24020   0.44257   Biso      1.000     C          -0.029131           
         C23       1.0000    0.28660   0.28990   0.48030   Biso      1.000     C          -0.091968           
         C24       1.0000    0.31000   0.34530   0.52880   Biso      1.000     C          -0.15379  
         C25       1.0000    0.30940   0.18190   0.38895   Biso      1.000     C          0.583318  
         C26       1.0000    0.00300   0.96400   0.67268   Biso      1.000     C          -0.022451           
         C27       1.0000    0.95730   0.03520   0.70083   Biso      1.000     C          -0.120371           
         C28       1.0000    0.88770   0.05520   0.67860   Biso      1.000     C          -0.017225           
         C29       1.0000    0.86620   0.00180   0.62730   Biso      1.000     C          -0.150497           
         C30       1.0000    0.54610   0.01020   0.80145   Biso      1.000     C          -0.120545           
         C31       1.0000    0.98100   0.91010   0.62240   Biso      1.000     C          -0.153974           
         C32       1.0000    0.07670   0.93500   0.69760   Biso      1.000     C          0.625759  
         C33       1.0000    0.83690   0.13130   0.70925   Biso      1.000     C          0.606381  
         C34       1.0000    0.88960   0.87110   0.54575   Biso      1.000     C          0.086826  
         C35       1.0000    0.94000   0.83970   0.50250   Biso      1.000     C          -0.157046           
         C36       1.0000    0.84480   0.75170   0.44690   Biso      1.000     C          -0.027904           
         C37       1.0000    0.97490   0.11590   0.37980   Biso      1.000     C          -0.14774  
         C38       1.0000    0.90790   0.09010   0.40376   Biso      1.000     C          0.065647  
         C39       1.0000    0.86520   0.01260   0.37660   Biso      1.000     C          -0.151257           
         C40       1.0000    0.34480   0.74830   0.55310   Biso      1.000     C          -0.027926           
         C41       1.0000    0.29690   0.70940   0.51400   Biso      1.000     C          -0.094319           
         C42       1.0000    0.31710   0.64860   0.46570   Biso      1.000     C          -0.153507           
         C43       1.0000    0.32100   0.81630   0.60478   Biso      1.000     C          0.598366  
         C44       1.0000    0.71340   0.78990   0.01970   Biso      1.000     C          -0.091963           
         C45       1.0000    0.66440   0.74020   0.05743   Biso      1.000     C          -0.029134           
         C46       1.0000    0.59130   0.75030   0.04580   Biso      1.000     C          -0.093141           
         C47       1.0000    0.56880   0.80770   0.99710   Biso      1.000     C          -0.147954           
         C48       1.0000    0.61710   0.85150   0.95854   Biso      1.000     C          0.087787  
         C49       1.0000    0.43100   0.90520   0.80140   Biso      1.000     C          0.608897  
         C50       1.0000    0.66110   0.11950   0.79676   Biso      1.000     C          0.603282  
         C51       1.0000    0.63480   0.98740   0.87660   Biso      1.000     C          -0.151259           
         C52       1.0000    0.59210   0.90990   0.90376   Biso      1.000     C          0.065646  
         C53       1.0000    0.52510   0.88410   0.87980   Biso      1.000     C          -0.14774  
         C54       1.0000    0.50230   0.93420   0.82904   Biso      1.000     C          -0.018973           
         C55       1.0000    0.41710   0.72260   0.54640   Biso      1.000     C          -0.097557           
         C56       1.0000    0.44000   0.66030   0.49750   Biso      1.000     C          -0.157046           
         C57       1.0000    0.38960   0.62890   0.45425   Biso      1.000     C          0.086826  
         C58       1.0000    0.33690   0.36870   0.29075   Biso      1.000     C          0.606381  
         C59       1.0000    0.83890   0.88050   0.29676   Biso      1.000     C          0.603282  
         C60       1.0000    0.06900   0.09480   0.30140   Biso      1.000     C          0.608897  
         C61       1.0000    0.88290   0.14850   0.45854   Biso      1.000     C          0.087777  
         C62       1.0000    0.93120   0.19230   0.49710   Biso      1.000     C          -0.147946           
         C63       1.0000    0.90870   0.24970   0.54580   Biso      1.000     C          -0.093145           
         C64       1.0000    0.83560   0.25980   0.55743   Biso      1.000     C          -0.029131           
         C65       1.0000    0.78660   0.21010   0.51970   Biso      1.000     C          -0.091969           
         C66       1.0000    0.43120   0.30770   0.50290   Biso      1.000     C          -0.147953           
         C67       1.0000    0.81000   0.15470   0.47120   Biso      1.000     C          -0.153786           
         C68       1.0000    0.50300   0.53600   0.32732   Biso      1.000     C          -0.022451           
         C69       1.0000    0.45730   0.46480   0.29917   Biso      1.000     C          -0.120371           
         C70       1.0000    0.38770   0.44480   0.32140   Biso      1.000     C          -0.017225           
         C71       1.0000    0.36620   0.49820   0.37270   Biso      1.000     C          -0.150498           
         C72       1.0000    0.41290   0.56920   0.40130   Biso      1.000     C          0.072646  
         C73       1.0000    0.48100   0.58990   0.37760   Biso      1.000     C          -0.153974           
         C74       1.0000    0.57670   0.56500   0.30240   Biso      1.000     C          0.625759  
         C75       1.0000    0.80940   0.31810   0.61105   Biso      1.000     C          0.583318  
         C76       1.0000    0.38290   0.35150   0.54146   Biso      1.000     C          0.087786  
         C77       1.0000    0.61400   0.03730   0.82500   Biso      1.000     C          -0.010551           
         C78       1.0000    0.33890   0.61950   0.70324   Biso      1.000     C          0.603281  
         C79       1.0000    0.70310   0.20940   0.98600   Biso      1.000     C          -0.094339           
         C80       1.0000    0.65520   0.24830   0.94690   Biso      1.000     C          -0.027905           
         C81       1.0000    0.58290   0.22260   0.95360   Biso      1.000     C          -0.097559           
         C82       1.0000    0.56000   0.16030   0.00250   Biso      1.000     C          -0.157046           
         C83       1.0000    0.56900   0.40520   0.69860   Biso      1.000     C          0.608897  
         C84       1.0000    0.66310   0.86870   0.20925   Biso      1.000     C          0.606381  
         C85       1.0000    0.42330   0.06500   0.19760   Biso      1.000     C          0.625759  
         C86       1.0000    0.51900   0.08990   0.12240   Biso      1.000     C          -0.153976           
         C87       1.0000    0.58710   0.06920   0.09870   Biso      1.000     C          0.072644  
         C88       1.0000    0.63380   0.99820   0.12730   Biso      1.000     C          -0.150497           
         C89       1.0000    0.61230   0.94480   0.17860   Biso      1.000     C          -0.017225           
         C90       1.0000    0.54270   0.96480   0.20083   Biso      1.000     C          -0.120374           
         C91       1.0000    0.49700   0.03600   0.17268   Biso      1.000     C          -0.022447           
         C92       1.0000    0.68290   0.14860   0.03430   Biso      1.000     C          -0.153504           
         C93       1.0000    0.19060   0.81810   0.88895   Biso      1.000     C          0.583318  
         C94       1.0000    0.21340   0.71010   0.98030   Biso      1.000     C          -0.091969           
         C95       1.0000    0.16440   0.75980   0.94257   Biso      1.000     C          -0.029133           
         C96       1.0000    0.09130   0.74970   0.95420   Biso      1.000     C          -0.093141           
         C97       1.0000    0.06880   0.69230   0.00290   Biso      1.000     C          -0.147953           
         C98       1.0000    0.11710   0.64850   0.04146   Biso      1.000     C          0.087783  
         C99       1.0000    0.93100   0.59480   0.19860   Biso      1.000     C          0.608897  
         C100      1.0000    0.16110   0.38050   0.20324   Biso      1.000     C          0.603282  
         C101      1.0000    0.13480   0.51260   0.12340   Biso      1.000     C          -0.151258           
         C102      1.0000    0.09210   0.59010   0.09624   Biso      1.000     C          0.065647  
         C103      1.0000    0.02510   0.61590   0.12020   Biso      1.000     C          -0.14774  
         C104      1.0000    0.00230   0.56580   0.17096   Biso      1.000     C          -0.018975           
         C105      1.0000    0.04610   0.48980   0.19855   Biso      1.000     C          -0.120543           
         C106      1.0000    0.11400   0.46270   0.17500   Biso      1.000     C          -0.010551           
         C107      1.0000    0.19000   0.65470   0.02880   Biso      1.000     C          -0.153786           
         C108      1.0000    0.67900   0.31630   0.89522   Biso      1.000     C          0.598364  
         C109      1.0000    0.61040   0.12890   0.04575   Biso      1.000     C          0.086826  
         C110      1.0000    0.38600   0.53730   0.67500   Biso      1.000     C          -0.010552           
         C111      1.0000    0.08290   0.27740   0.04640   Biso      1.000     C          -0.097558           
         C112      1.0000    0.36520   0.48740   0.62340   Biso      1.000     C          -0.151257           
         C113      1.0000    0.49770   0.43420   0.67096   Biso      1.000     C          -0.018975           
         C114      1.0000    0.17900   0.18370   0.10478   Biso      1.000     C          0.598366  
         C115      1.0000    0.18290   0.35140   0.96570   Biso      1.000     C          -0.153507           
         C116      1.0000    0.40790   0.40990   0.59624   Biso      1.000     C          0.065646  
         C117      1.0000    0.15520   0.25170   0.05310   Biso      1.000     C          -0.027924           
         C118      1.0000    0.20310   0.29060   0.01400   Biso      1.000     C          -0.094318           
         C119      1.0000    0.47490   0.38410   0.62020   Biso      1.000     C          -0.14774  
         C120      1.0000    0.45390   0.51020   0.69855   Biso      1.000     C          -0.120542           
         H1        1.0000    0.01160   0.35980   0.99390   Biso      1.000     H          0.121767  
         H2        1.0000    0.32010   0.48580   0.38760   Biso      1.000     H          0.122597  
         H3        1.0000    0.51190   0.63990   0.39540   Biso      1.000     H          0.124838  
         H4        1.0000    0.22350   0.62130   0.05310   Biso      1.000     H          0.118924  
         H5        1.0000    0.47230   0.42990   0.26540   Biso      1.000     H          0.131558  
         H6        1.0000    0.82010   0.01420   0.61240   Biso      1.000     H          0.122597  
         H7        1.0000    0.67880   0.00690   0.89340   Biso      1.000     H          0.118721  
         H8        1.0000    0.26270   0.71450   0.97260   Biso      1.000     H          0.120801  
         H9        1.0000    0.97230   0.07010   0.73460   Biso      1.000     H          0.131558  
         H10       1.0000    0.48840   0.64020   0.49390   Biso      1.000     H          0.121767  
         H11       1.0000    0.46940   0.54340   0.73270   Biso      1.000     H          0.130739  
         H12       1.0000    0.01950   0.68330   0.00950   Biso      1.000     H          0.118025  
         H13       1.0000    0.45070   0.74580   0.57380   Biso      1.000     H          0.123538  
         H14       1.0000    0.27650   0.37870   0.55310   Biso      1.000     H          0.118925  
         H15       1.0000    0.24800   0.72410   0.51960   Biso      1.000     H          0.113688  
         H16       1.0000    0.50450   0.33300   0.60200   Biso      1.000     H          0.126961  
         H17       1.0000    0.28190   0.62090   0.44100   Biso      1.000     H          0.120593  
         H18       1.0000    0.17880   0.49310   0.10660   Biso      1.000     H          0.118721  
         H19       1.0000    0.23730   0.28550   0.47260   Biso      1.000     H          0.120801  
         H20       1.0000    0.55740   0.71870   0.07050   Biso      1.000     H          0.123578  
         H21       1.0000    0.99550   0.66700   0.10200   Biso      1.000     H          0.126961  
         H22       1.0000    0.51950   0.81670   0.99050   Biso      1.000     H          0.118025  
         H23       1.0000    0.44260   0.21870   0.42950   Biso      1.000     H          0.123578  
         H24       1.0000    0.05740   0.78130   0.92950   Biso      1.000     H          0.123578  
         H25       1.0000    0.77650   0.12130   0.44690   Biso      1.000     H          0.118924  
         H26       1.0000    0.01190   0.86010   0.60460   Biso      1.000     H          0.124838  
         H27       1.0000    0.73730   0.21450   0.52740   Biso      1.000     H          0.120801  
         H28       1.0000    0.53060   0.04340   0.76730   Biso      1.000     H          0.130739  
         H29       1.0000    0.98810   0.36010   0.89540   Biso      1.000     H          0.124838  
         H30       1.0000    0.49550   0.83300   0.89800   Biso      1.000     H          0.126961  
         H31       1.0000    0.17990   0.51420   0.88760   Biso      1.000     H          0.122597  
         H32       1.0000    0.78190   0.87910   0.55900   Biso      1.000     H          0.120593  
         H33       1.0000    0.71810   0.12090   0.05900   Biso      1.000     H          0.120594  
         H34       1.0000    0.02770   0.57010   0.76540   Biso      1.000     H          0.131558  
         H35       1.0000    0.48050   0.31670   0.50950   Biso      1.000     H          0.118025  
         H36       1.0000    0.75200   0.22410   0.98040   Biso      1.000     H          0.113689  
         H37       1.0000    0.74800   0.77590   0.48040   Biso      1.000     H          0.113689  
         H38       1.0000    0.72350   0.87870   0.94690   Biso      1.000     H          0.118925  
         H39       1.0000    0.52770   0.92990   0.23460   Biso      1.000     H          0.131558  
         H40       1.0000    0.54930   0.24580   0.92620   Biso      1.000     H          0.123538  
         H41       1.0000    0.76270   0.78550   0.02740   Biso      1.000     H          0.120801  
         H42       1.0000    0.96940   0.95660   0.26730   Biso      1.000     H          0.130739  
         H43       1.0000    0.03060   0.45660   0.23270   Biso      1.000     H          0.130739  
         H44       1.0000    0.04930   0.25420   0.07380   Biso      1.000     H          0.123538  
         H45       1.0000    0.94260   0.28130   0.57050   Biso      1.000     H          0.123579  
         H46       1.0000    0.67990   0.98580   0.11240   Biso      1.000     H          0.122597  
         H47       1.0000    0.21810   0.37910   0.94100   Biso      1.000     H          0.120593  
         H48       1.0000    0.48810   0.13990   0.10460   Biso      1.000     H          0.124838  
         H49       1.0000    0.98050   0.18330   0.49050   Biso      1.000     H          0.118024  
         H50       1.0000    0.82120   0.99310   0.39340   Biso      1.000     H          0.118721  
         H51       1.0000    0.98840   0.85980   0.50610   Biso      1.000     H          0.121767  
         H52       1.0000    0.00450   0.16700   0.39800   Biso      1.000     H          0.126961  
         H53       1.0000    0.95070   0.75420   0.42620   Biso      1.000     H          0.123538  
         H54       1.0000    0.51160   0.14020   0.00610   Biso      1.000     H          0.121767  
         H55       1.0000    0.25200   0.27590   0.01960   Biso      1.000     H          0.113687  
         H56       1.0000    0.32120   0.50690   0.60660   Biso      1.000     H          0.118721  
         O1        1.0000    0.90803   0.48130   0.75460   Biso      1.000     O          -0.551149           
         O2        1.0000    0.22610   0.63900   0.81270   Biso      1.000     O          -0.555963           
         O3        1.0000    0.13902   0.68240   0.74763   Biso      1.000     O          -0.569038           
         O4        1.0000    0.63799   0.16410   0.74973   Biso      1.000     O          -0.553111           
         O5        1.0000    0.74784   0.36160   0.75659   Biso      1.000     O          -1.00662  
         O6        1.0000    0.88427   0.37320   0.83055   Biso      1.000     O          -0.547236           
         O7        1.0000    0.75690   0.67560   0.12069   Biso      1.000     O          -0.565043           
         O8        1.0000    0.64176   0.64000   0.14342   Biso      1.000     O          -0.537164           
         O9        1.0000    0.39219   0.83540   0.82856   Biso      1.000     O          -0.531229           
         O10       1.0000    0.41518   0.95070   0.75424   Biso      1.000     O          -0.553613           
         O11       1.0000    0.72282   0.13750   0.81942   Biso      1.000     O          -0.585433           
         O12       1.0000    0.75647   0.66530   0.38764   Biso      1.000     O          -0.577459           
         O13       1.0000    0.24353   0.16530   0.11236   Biso      1.000     O          -0.577459           
         O14       1.0000    0.35824   0.14000   0.35658   Biso      1.000     O          -0.537164           
         O15       1.0000    0.77390   0.13900   0.68730   Biso      1.000     O          -0.555963           
         O16       1.0000    0.09197   0.98130   0.74540   Biso      1.000     O          -0.551149           
         O17       1.0000    0.11573   0.87320   0.66945   Biso      1.000     O          -0.547235           
         O18       1.0000    0.24310   0.17560   0.37931   Biso      1.000     O          -0.565043           
         O19       1.0000    0.91518   0.54930   0.24576   Biso      1.000     O          -0.553613           
         O20       1.0000    0.60781   0.33540   0.67144   Biso      1.000     O          -0.53123  
         O21       1.0000    0.58482   0.45070   0.74576   Biso      1.000     O          -0.553613           
         O22       1.0000    0.36201   0.66410   0.75027   Biso      1.000     O          -0.553111           
         O23       1.0000    0.27718   0.63750   0.68058   Biso      1.000     O          -0.585433           
         O24       1.0000    0.25216   0.86160   0.74341   Biso      1.000     O          -1.00662  
         O25       1.0000    0.89219   0.66460   0.17144   Biso      1.000     O          -0.53123  
         O26       1.0000    0.14176   0.86000   0.85658   Biso      1.000     O          -0.537164           
         O27       1.0000    0.25690   0.82440   0.87931   Biso      1.000     O          -0.565042           
         O28       1.0000    0.38427   0.12680   0.16945   Biso      1.000     O          -0.547235           
         O29       1.0000    0.74353   0.33470   0.88764   Biso      1.000     O          -0.577459           
         O30       1.0000    0.62874   0.34740   0.86153   Biso      1.000     O          -0.529877           
         O31       1.0000    0.63902   0.81760   0.25237   Biso      1.000     O          -0.569039           
         O32       1.0000    0.86098   0.18240   0.75237   Biso      1.000     O          -0.569039           
         O33       1.0000    0.87126   0.65260   0.36153   Biso      1.000     O          -0.529877           
         O34       1.0000    0.12874   0.15260   0.13847   Biso      1.000     O          -0.529877           
         O35       1.0000    0.13799   0.33590   0.25027   Biso      1.000     O          -0.553111           
         O36       1.0000    0.25647   0.83470   0.61236   Biso      1.000     O          -0.577459           
         O37       1.0000    0.37126   0.84740   0.63847   Biso      1.000     O          -0.529877           
         O38       1.0000    0.36098   0.31760   0.24763   Biso      1.000     O          -0.569039           
         O39       1.0000    0.27390   0.36100   0.31270   Biso      1.000     O          -0.555963           
         O40       1.0000    0.59197   0.51870   0.25460   Biso      1.000     O          -0.551149           
         O41       1.0000    0.61573   0.62680   0.33055   Biso      1.000     O          -0.547235           
         O42       1.0000    0.72610   0.86100   0.18730   Biso      1.000     O          -0.555963           
         O43       1.0000    0.85824   0.36000   0.64342   Biso      1.000     O          -0.537164           
         O44       1.0000    0.74310   0.32440   0.62069   Biso      1.000     O          -0.565043           
         O45       1.0000    0.08482   0.04930   0.25424   Biso      1.000     O          -0.553613           
         O46       1.0000    0.86201   0.83590   0.24973   Biso      1.000     O          -0.553111           
         O47       1.0000    0.77718   0.86250   0.31942   Biso      1.000     O          -0.585433           
         O48       1.0000    0.75216   0.63840   0.25659   Biso      1.000     O          -1.00662  
         O49       1.0000    0.24784   0.13840   0.24341   Biso      1.000     O          -1.00662  
         O50       1.0000    0.22282   0.36250   0.18058   Biso      1.000     O          -0.585433           
         O51       1.0000    0.10781   0.16460   0.32856   Biso      1.000     O          -0.531229           
         O52       1.0000    0.40803   0.01870   0.24540   Biso      1.000     O          -0.551149           
         Zn1       1.0000    0.31982   0.06147   0.28798   Biso      1.000     Zn          0.95138   
         Zn2       1.0000    0.17020   0.06638   0.20422   Biso      1.000     Zn          0.967622  
         Zn3       1.0000    0.20014   0.23794   0.29952   Biso      1.000     Zn          0.988727  
         Zn4       1.0000    0.67020   0.43362   0.79578   Biso      1.000     Zn          0.967622  
         Zn5       1.0000    0.29986   0.76206   0.79952   Biso      1.000     Zn          0.988726  
         Zn6       1.0000    0.32980   0.93362   0.70422   Biso      1.000     Zn          0.967622  
         Zn7       1.0000    0.18018   0.93853   0.78798   Biso      1.000     Zn          0.95138   
         Zn8       1.0000    0.81982   0.43853   0.71202   Biso      1.000     Zn          0.95138   
         Zn9       1.0000    0.70083   0.73754   0.31433   Biso      1.000     Zn          1.059897  
         Zn10      1.0000    0.79986   0.73794   0.20048   Biso      1.000     Zn          0.988727  
         Zn11      1.0000    0.82980   0.56638   0.29578   Biso      1.000     Zn          0.967622  
         Zn12      1.0000    0.68018   0.56147   0.21202   Biso      1.000     Zn          0.951381  
         Zn13      1.0000    0.79917   0.26246   0.81433   Biso      1.000     Zn          1.059898  
         Zn14      1.0000    0.70014   0.26206   0.70048   Biso      1.000     Zn          0.988727  
         Zn15      1.0000    0.20083   0.76246   0.68567   Biso      1.000     Zn          1.059897  
         Zn16      1.0000    0.29917   0.23754   0.18567   Biso      1.000     Zn          1.059897 