
##########################################################################
#               Crystallographic Information Format file
#               Produced by PyCifRW module
#
#  This is a CIF file.  CIF has been adopted by the International
#  Union of Crystallography as the standard for data archiving and
#  transmission.
#
#  For information on this file format, follow the CIF links at
#  http://www.iucr.org
##########################################################################

data_image0

_cell_length_a                          5.2788
_cell_length_b                          15.467
_cell_length_c                          8.295
_cell_angle_alpha                       90
_cell_angle_beta                        92.552
_cell_angle_gamma                       90
_symmetry_space_group_name_H-M          'P 1'
_symmetry_int_tables_number             1
loop_
  _symmetry_equiv_pos_as_xyz
         'x, y, z' 
loop_
  _atom_site_label
  _atom_site_occupancy
  _atom_site_fract_x
  _atom_site_fract_y
  _atom_site_fract_z
  _atom_site_thermal_displace_type
  _atom_site_B_iso_or_equiv
  _atom_site_type_symbol
  _atom_site_charge
         C1        1.0000    0.51310   0.33609   0.23990   Biso      1.000     C          -0.174223           
         C2        1.0000    0.37730   0.80710   0.29350   Biso      1.000     C          -0.184918           
         C3        1.0000    0.34370   0.71813   0.31430   Biso      1.000     C          0.088132  
         C4        1.0000    0.51310   0.66391   0.23990   Biso      1.000     C          -0.174946           
         C5        1.0000    0.02660   0.50000   0.06820   Biso      1.000     C          -0.100465           
         C6        1.0000    0.70230   0.69888   0.15070   Biso      1.000     C          0.08611100000000001           
         C7        1.0000    0.14380   0.68769   0.41700   Biso      1.000     C          0.24889   
         C8        1.0000    0.42720   0.83622   0.79610   Biso      1.000     C          0.07339   
         C9        1.0000    0.57280   0.16378   0.20390   Biso      1.000     C          0.077556  
         C10       1.0000    0.85620   0.68769   0.58300   Biso      1.000     C          0.250702  
         C11       1.0000    0.37730   0.19290   0.29350   Biso      1.000     C          -0.18809  
         C12       1.0000    0.34370   0.28187   0.31430   Biso      1.000     C          0.086352  
         C13       1.0000    0.29770   0.69888   0.84930   Biso      1.000     C          0.086497  
         C14       1.0000    0.70230   0.30112   0.15070   Biso      1.000     C          0.086462  
         C15       1.0000    0.57280   0.83622   0.20390   Biso      1.000     C          0.07336799999999999           
         C16       1.0000    0.48690   0.66391   0.76010   Biso      1.000     C          -0.17295  
         C17       1.0000    0.85620   0.31231   0.58300   Biso      1.000     C          0.251542  
         C18       1.0000    0.00000   0.96240   0.00000   Biso      1.000     C          -0.12795499999999999          
         C19       1.0000    0.42720   0.16378   0.79610   Biso      1.000     C          0.077582  
         C20       1.0000    0.65630   0.71813   0.68570   Biso      1.000     C          0.08824   
         C21       1.0000    0.62270   0.19290   0.70650   Biso      1.000     C          -0.188568           
         C22       1.0000    0.65630   0.28187   0.68570   Biso      1.000     C          0.086465  
         C23       1.0000    0.14380   0.31231   0.41700   Biso      1.000     C          0.24972600000000003           
         C24       1.0000    0.29770   0.30112   0.84930   Biso      1.000     C          0.086873  
         C25       1.0000    0.62270   0.80710   0.70650   Biso      1.000     C          -0.185393           
         C26       1.0000    0.48690   0.33609   0.76010   Biso      1.000     C          -0.172237           
         Cu1       1.0000    0.00000   0.83840   0.00000   Biso      1.000     Cu          0.206855  
         Cu2       1.0000    0.90689   0.50000   0.70394   Biso      1.000     Cu          0.388203  
         Cu3       1.0000    0.00000   0.16160   0.00000   Biso      1.000     Cu          0.300668  
         Cu4       1.0000    0.09311   0.50000   0.29606   Biso      1.000     Cu          0.28344400000000003           
         H1        1.0000    0.50110   0.60430   0.74970   Biso      1.000     H          0.111917  
         H2        1.0000    0.59280   0.89560   0.19260   Biso      1.000     H          0.09436599999999999           
         H3        1.0000    0.18820   0.66120   0.89900   Biso      1.000     H          0.084867  
         H4        1.0000    0.73170   0.84620   0.66010   Biso      1.000     H          0.13434300000000002           
         H5        1.0000    0.81180   0.66120   0.10100   Biso      1.000     H          0.082734  
         H6        1.0000    0.59280   0.10440   0.19260   Biso      1.000     H          0.09866799999999999           
         H7        1.0000    0.49890   0.60430   0.25030   Biso      1.000     H          0.11109200000000001           
         H8        1.0000    0.26830   0.15380   0.33990   Biso      1.000     H          0.134722  
         H9        1.0000    0.49890   0.39570   0.25030   Biso      1.000     H          0.111121  
         H10       1.0000    0.81180   0.33880   0.10100   Biso      1.000     H          0.08229600000000001           
         H11       1.0000    0.40720   0.10440   0.80740   Biso      1.000     H          0.098705  
         H12       1.0000    0.73170   0.15380   0.66010   Biso      1.000     H          0.134732  
         H13       1.0000    0.50110   0.39570   0.74970   Biso      1.000     H          0.11194200000000001           
         H14       1.0000    0.18820   0.33880   0.89900   Biso      1.000     H          0.084425  
         H15       1.0000    0.26830   0.84620   0.33990   Biso      1.000     H          0.134332  
         H16       1.0000    0.40720   0.89560   0.80740   Biso      1.000     H          0.094402  
         N1        1.0000    0.97340   0.50000   0.93180   Biso      1.000     N          -0.33917600000000003          
         N2        1.0000    0.00000   0.03760   0.00000   Biso      1.000     N          -0.34794899999999995          
         N3        1.0000    0.90740   0.39648   0.55560   Biso      1.000     N          -0.254155           
         N4        1.0000    0.90740   0.60352   0.55560   Biso      1.000     N          -0.25356799999999996          
         N5        1.0000    0.00000   0.25823   0.50000   Biso      1.000     N          -0.384868           
         N6        1.0000    0.73730   0.78393   0.13150   Biso      1.000     N          -0.187745           
         N7        1.0000    0.09260   0.60352   0.44440   Biso      1.000     N          -0.22817600000000002          
         N8        1.0000    0.73730   0.21607   0.13150   Biso      1.000     N          -0.20730900000000002          
         N9        1.0000    0.09260   0.39648   0.44440   Biso      1.000     N          -0.228769           
         N10       1.0000    0.26270   0.21607   0.86850   Biso      1.000     N          -0.207923           
         N11       1.0000    0.26270   0.78393   0.86850   Biso      1.000     N          -0.188353           
         N12       1.0000    0.00000   0.74177   0.50000   Biso      1.000     N          -0.383984 