
##########################################################################
#               Crystallographic Information Format file
#               Produced by PyCifRW module
#
#  This is a CIF file.  CIF has been adopted by the International
#  Union of Crystallography as the standard for data archiving and
#  transmission.
#
#  For information on this file format, follow the CIF links at
#  http://www.iucr.org
##########################################################################

data_image0

_cell_length_a                          8.5897
_cell_length_b                          17.4446
_cell_length_c                          17.4446
_cell_angle_alpha                       120
_cell_angle_beta                        90
_cell_angle_gamma                       90
_symmetry_space_group_name_H-M          'P 1'
_symmetry_int_tables_number             1
loop_
  _symmetry_equiv_pos_as_xyz
         'x, y, z' 
loop_
  _atom_site_label
  _atom_site_occupancy
  _atom_site_fract_x
  _atom_site_fract_y
  _atom_site_fract_z
  _atom_site_thermal_displace_type
  _atom_site_B_iso_or_equiv
  _atom_site_type_symbol
  _atom_site_charge
         C1        1.0000    0.82067   0.83150   0.17490   Biso      1.000     C          -0.12818  
         C2        1.0000    0.16950   0.47491   0.31951   Biso      1.000     C          0.612541  
         C3        1.0000    0.36763   0.71689   0.52301   Biso      1.000     C          -0.24929  
         C4        1.0000    0.10770   0.30330   0.08070   Biso      1.000     C          -0.142155           
         C5        1.0000    0.29903   0.52301   0.71689   Biso      1.000     C          -0.246273           
         C6        1.0000    0.34633   0.56297   0.66951   Biso      1.000     C          0.283407  
         C7        1.0000    0.84600   0.17490   0.83150   Biso      1.000     C          -0.124707           
         C8        1.0000    0.54727   0.22496   0.43020   Biso      1.000     C          -0.002624           
         C9        1.0000    0.78607   0.77504   0.20524   Biso      1.000     C          -0.003775           
         C10       1.0000    0.88060   0.20524   0.77504   Biso      1.000     C          -0.00366  
         C11       1.0000    0.70097   0.80612   0.28311   Biso      1.000     C          -0.24627399999999997          
         C12       1.0000    0.63237   0.19388   0.47699   Biso      1.000     C          -0.249288           
         C13       1.0000    0.98700   0.43703   0.10654   Biso      1.000     C          0.282954  
         C14       1.0000    0.77437   0.91930   0.22260   Biso      1.000     C          -0.141598           
         C15       1.0000    0.51267   0.16850   0.34340   Biso      1.000     C          -0.127449           
         C16       1.0000    0.21393   0.56980   0.79476   Biso      1.000     C          -0.003785           
         C17       1.0000    0.55897   0.08070   0.30330   Biso      1.000     C          -0.141571           
         C18       1.0000    0.96570   0.28311   0.80612   Biso      1.000     C          -0.24726199999999998          
         C19       1.0000    0.83050   0.15540   0.68049   Biso      1.000     C          0.61254   
         C20       1.0000    0.69067   0.95350   0.30130   Biso      1.000     C          -0.0077859999999999995        
         C21       1.0000    0.32033   0.66951   0.56297   Biso      1.000     C          0.283445  
         C22       1.0000    0.01300   0.33049   0.89346   Biso      1.000     C          0.282955  
         C23       1.0000    0.49717   0.31951   0.47491   Biso      1.000     C          0.612105  
         C24       1.0000    0.35733   0.69870   0.65220   Biso      1.000     C          -0.011427           
         C25       1.0000    0.17933   0.65660   0.82510   Biso      1.000     C          -0.128169           
         C26       1.0000    0.48733   0.82510   0.65660   Biso      1.000     C          -0.127457           
         C27       1.0000    0.65367   0.89346   0.33049   Biso      1.000     C          0.283407  
         C28       1.0000    0.11940   0.43020   0.22496   Biso      1.000     C          -0.003668           
         C29       1.0000    0.67967   0.10654   0.43703   Biso      1.000     C          0.283445  
         C30       1.0000    0.22563   0.69670   0.77740   Biso      1.000     C          -0.141599           
         C31       1.0000    0.83617   0.68049   0.15540   Biso      1.000     C          0.612382  
         C32       1.0000    0.50283   0.84460   0.52509   Biso      1.000     C          0.612104  
         C33       1.0000    0.89230   0.22260   0.91930   Biso      1.000     C          -0.142153           
         C34       1.0000    0.15400   0.34340   0.16850   Biso      1.000     C          -0.124698           
         C35       1.0000    0.30933   0.65220   0.69870   Biso      1.000     C          -0.0077859999999999995        
         C36       1.0000    0.45273   0.79476   0.56980   Biso      1.000     C          -0.002617           
         C37       1.0000    0.44103   0.77740   0.69670   Biso      1.000     C          -0.14157  
         C38       1.0000    0.16383   0.52509   0.84460   Biso      1.000     C          0.612383  
         C39       1.0000    0.03430   0.47699   0.19388   Biso      1.000     C          -0.247261           
         C40       1.0000    0.64267   0.04650   0.34780   Biso      1.000     C          -0.011427           
         C41       1.0000    0.02400   0.34780   0.04650   Biso      1.000     C          -0.009056           
         C42       1.0000    0.97600   0.30130   0.95350   Biso      1.000     C          -0.009056           
         H1        1.0000    0.34163   0.69600   0.46280   Biso      1.000     H          0.147726  
         H2        1.0000    0.54313   0.87890   0.68970   Biso      1.000     H          0.12498900000000002           
         H3        1.0000    0.53257   0.04230   0.24300   Biso      1.000     H          0.125777  
         H4        1.0000    0.87647   0.81080   0.12110   Biso      1.000     H          0.12466500000000001           
         H5        1.0000    0.86800   0.54600   0.12800   Biso      1.000     H          0.344493  
         H6        1.0000    0.13410   0.24300   0.04230   Biso      1.000     H          0.125622  
         H7        1.0000    0.46533   0.45400   0.58200   Biso      1.000     H          0.344777  
         H8        1.0000    0.32503   0.46280   0.69600   Biso      1.000     H          0.14641500000000002           
         H9        1.0000    0.79867   0.12800   0.54600   Biso      1.000     H          0.344032  
         H10       1.0000    0.45687   0.18920   0.31030   Biso      1.000     H          0.12498900000000002           
         H11       1.0000    0.00830   0.53720   0.23320   Biso      1.000     H          0.147019  
         H12       1.0000    0.19923   0.75700   0.79930   Biso      1.000     H          0.12553399999999998           
         H13       1.0000    0.80077   0.95770   0.20070   Biso      1.000     H          0.12553399999999998           
         H14       1.0000    0.53467   0.87200   0.41800   Biso      1.000     H          0.344777  
         H15       1.0000    0.67497   0.76680   0.30400   Biso      1.000     H          0.14641500000000002           
         H16       1.0000    0.46743   0.79930   0.75700   Biso      1.000     H          0.125777  
         H17       1.0000    0.20980   0.31030   0.18920   Biso      1.000     H          0.122826  
         H18       1.0000    0.65837   0.23320   0.53720   Biso      1.000     H          0.147727  
         H19       1.0000    0.13200   0.41800   0.87200   Biso      1.000     H          0.344493  
         H20       1.0000    0.86590   0.20070   0.95770   Biso      1.000     H          0.125622  
         H21       1.0000    0.12353   0.68970   0.87890   Biso      1.000     H          0.12466400000000001           
         H22       1.0000    0.20133   0.58200   0.45400   Biso      1.000     H          0.344032  
         H23       1.0000    0.99170   0.30400   0.76680   Biso      1.000     H          0.147019  
         H24       1.0000    0.79020   0.12110   0.81080   Biso      1.000     H          0.12282699999999999           
         Mg1       1.0000    0.66667   0.00000   0.53516   Biso      1.000     Mg          1.407351  
         Mg2       1.0000    0.00000   0.53516   0.00000   Biso      1.000     Mg          1.408614  
         Mg3       1.0000    0.33333   0.46484   0.46484   Biso      1.000     Mg          1.407351  
         O1        1.0000    0.57413   0.91569   0.57019   Biso      1.000     O          -0.6827270000000001           
         O2        1.0000    0.52887   0.36845   0.55696   Biso      1.000     O          -0.53478  
         O3        1.0000    0.42587   0.34550   0.42981   Biso      1.000     O          -0.6827270000000001           
         O4        1.0000    0.47113   0.81149   0.44304   Biso      1.000     O          -0.53478  
         O5        1.0000    0.90747   0.65450   0.08431   Biso      1.000     O          -0.6832699999999999           
         O6        1.0000    0.19553   0.44304   0.81149   Biso      1.000     O          -0.53425  
         O7        1.0000    0.09253   0.57019   0.91569   Biso      1.000     O          -0.6832699999999999           
         O8        1.0000    0.56877   0.92338   0.40740   Biso      1.000     O          -0.594793           
         O9        1.0000    0.24080   0.42981   0.34550   Biso      1.000     O          -0.682929           
         O10       1.0000    0.75920   0.08431   0.65450   Biso      1.000     O          -0.682929           
         O11       1.0000    0.76457   0.07662   0.48402   Biso      1.000     O          -0.593345           
         O12       1.0000    0.09790   0.40740   0.92338   Biso      1.000     O          -0.594594           
         O13       1.0000    0.43123   0.51598   0.59260   Biso      1.000     O          -0.594793           
         O14       1.0000    0.90210   0.48402   0.07662   Biso      1.000     O          -0.594594           
         O15       1.0000    0.86220   0.18851   0.63155   Biso      1.000     O          -0.534871           
         O16       1.0000    0.23543   0.59260   0.51598   Biso      1.000     O          -0.593345           
         O17       1.0000    0.13780   0.55696   0.36845   Biso      1.000     O          -0.534872           
         O18       1.0000    0.80447   0.63155   0.18851   Biso      1.000     O          -0.534249 