
##########################################################################
#               Crystallographic Information Format file
#               Produced by PyCifRW module
#
#  This is a CIF file.  CIF has been adopted by the International
#  Union of Crystallography as the standard for data archiving and
#  transmission.
#
#  For information on this file format, follow the CIF links at
#  http://www.iucr.org
##########################################################################

data_image0

_cell_length_a                          11.1575
_cell_length_b                          11.2606
_cell_length_c                          11.424
_cell_angle_alpha                       76.762
_cell_angle_beta                        65.814
_cell_angle_gamma                       80.68
_symmetry_space_group_name_H-M          'P 1'
_symmetry_int_tables_number             1
loop_
  _symmetry_equiv_pos_as_xyz
         'x, y, z' 
loop_
  _atom_site_label
  _atom_site_occupancy
  _atom_site_fract_x
  _atom_site_fract_y
  _atom_site_fract_z
  _atom_site_thermal_displace_type
  _atom_site_B_iso_or_equiv
  _atom_site_type_symbol
  _atom_site_charge
         C1        1.0000    0.00346   0.27884   0.77458   Biso      1.000     C          0.5647449999999999  
         C2        1.0000    0.95494   0.03848   0.30527   Biso      1.000     C          0.02773   
         C3        1.0000    0.99100   0.94619   0.23182   Biso      1.000     C          -0.137477           
         C4        1.0000    0.96594   0.82718   0.29628   Biso      1.000     C          0.09779299999999999           
         C5        1.0000    0.99654   0.72116   0.22542   Biso      1.000     C          0.5647    
         C6        1.0000    0.98330   0.16916   0.24150   Biso      1.000     C          0.6019909999999999  
         C7        1.0000    0.71960   0.58613   0.77526   Biso      1.000     C          0.561307  
         C8        1.0000    0.62752   0.60394   0.70415   Biso      1.000     C          0.104152  
         C9        1.0000    0.49320   0.59860   0.76843   Biso      1.000     C          -0.148451           
         C10       1.0000    0.41627   0.61231   0.69495   Biso      1.000     C          0.035637  
         C11       1.0000    0.47820   0.63376   0.55957   Biso      1.000     C          -0.15921  
         C12       1.0000    0.61330   0.63973   0.50251   Biso      1.000     C          0.09968400000000001           
         C13       1.0000    0.26981   0.60213   0.75965   Biso      1.000     C          0.6000949999999999  
         C14       1.0000    0.03406   0.17282   0.70372   Biso      1.000     C          0.097785  
         C15       1.0000    0.00900   0.05381   0.76818   Biso      1.000     C          -0.13750199999999999          
         C16       1.0000    0.04506   0.96152   0.69473   Biso      1.000     C          0.027776  
         C17       1.0000    0.10710   0.99169   0.56071   Biso      1.000     C          -0.152726           
         C18       1.0000    0.12970   0.11353   0.50273   Biso      1.000     C          0.102281  
         C19       1.0000    0.01670   0.83084   0.75850   Biso      1.000     C          0.6019140000000001  
         C20       1.0000    0.28040   0.41387   0.22474   Biso      1.000     C          0.561318  
         C21       1.0000    0.37248   0.39606   0.29585   Biso      1.000     C          0.104149  
         C22       1.0000    0.50680   0.40140   0.23157   Biso      1.000     C          -0.148451           
         C23       1.0000    0.58373   0.38769   0.30505   Biso      1.000     C          0.035605  
         C24       1.0000    0.52180   0.36624   0.44043   Biso      1.000     C          -0.15921  
         C25       1.0000    0.38670   0.36027   0.49749   Biso      1.000     C          0.09971000000000001           
         C26       1.0000    0.73019   0.39787   0.24035   Biso      1.000     C          0.600086  
         C27       1.0000    0.89290   0.00831   0.43929   Biso      1.000     C          -0.152667           
         C28       1.0000    0.87030   0.88647   0.49727   Biso      1.000     C          0.102305  
         Co1       1.0000    0.89718   0.60708   0.50068   Biso      1.000     Co          0.907718  
         Co2       1.0000    0.97084   0.42820   0.28977   Biso      1.000     Co          1.133475  
         Co3       1.0000    0.00718   0.64072   0.99133   Biso      1.000     Co          1.05905   
         Co4       1.0000    0.10282   0.39292   0.49932   Biso      1.000     Co          0.90779   
         Co5       1.0000    0.02916   0.57180   0.71023   Biso      1.000     Co          1.133257  
         Co6       1.0000    0.99282   0.35928   0.00867   Biso      1.000     Co          1.058885  
         H1        1.0000    0.57160   0.35580   0.49290   Biso      1.000     H          0.132161  
         H2        1.0000    0.12680   0.47610   0.07810   Biso      1.000     H          0.43479799999999996           
         H3        1.0000    0.14660   0.62750   0.46100   Biso      1.000     H          0.414736  
         H4        1.0000    0.03190   0.96440   0.13930   Biso      1.000     H          0.153358  
         H5        1.0000    0.86590   0.07000   0.49140   Biso      1.000     H          0.13183599999999998           
         H6        1.0000    0.82710   0.86650   0.58950   Biso      1.000     H          0.103371  
         H7        1.0000    0.42840   0.64420   0.50710   Biso      1.000     H          0.132167  
         H8        1.0000    0.65490   0.65590   0.41000   Biso      1.000     H          0.101233  
         H9        1.0000    0.87320   0.52390   0.92190   Biso      1.000     H          0.43484799999999996           
         H10       1.0000    0.85340   0.37250   0.53900   Biso      1.000     H          0.41474799999999995           
         H11       1.0000    0.96810   0.03560   0.86070   Biso      1.000     H          0.15335   
         H12       1.0000    0.13410   0.93000   0.50860   Biso      1.000     H          0.131827  
         H13       1.0000    0.17290   0.13350   0.41050   Biso      1.000     H          0.103351  
         H14       1.0000    0.54650   0.41420   0.13900   Biso      1.000     H          0.152902  
         H15       1.0000    0.45350   0.58580   0.86100   Biso      1.000     H          0.152907  
         H16       1.0000    0.34510   0.34410   0.59000   Biso      1.000     H          0.101239  
         N1        1.0000    0.09289   0.20295   0.57214   Biso      1.000     N          -0.278537           
         N2        1.0000    0.31226   0.37644   0.42741   Biso      1.000     N          -0.288069           
         N3        1.0000    0.68774   0.62356   0.57259   Biso      1.000     N          -0.28807699999999997          
         N4        1.0000    0.90711   0.79705   0.42786   Biso      1.000     N          -0.278508           
         O1        1.0000    0.95052   0.52990   0.90626   Biso      1.000     O          -0.990952           
         O2        1.0000    0.77736   0.44887   0.29853   Biso      1.000     O          -0.606341           
         O3        1.0000    0.79104   0.35872   0.13605   Biso      1.000     O          -0.5375270000000001           
         O4        1.0000    0.32358   0.43219   0.10489   Biso      1.000     O          -0.497796           
         O5        1.0000    0.15894   0.40662   0.30093   Biso      1.000     O          -0.604221           
         O6        1.0000    0.97314   0.80604   0.88146   Biso      1.000     O          -0.57033  
         O7        1.0000    0.03856   0.75767   0.68297   Biso      1.000     O          -0.583563           
         O8        1.0000    0.95006   0.25945   0.89608   Biso      1.000     O          -0.506516           
         O9        1.0000    0.03904   0.38043   0.70146   Biso      1.000     O          -0.575539           
         O10       1.0000    0.08278   0.57580   0.51164   Biso      1.000     O          -0.882639           
         O11       1.0000    0.22264   0.55113   0.70147   Biso      1.000     O          -0.606395           
         O12       1.0000    0.20896   0.64128   0.86395   Biso      1.000     O          -0.537596           
         O13       1.0000    0.67642   0.56781   0.89511   Biso      1.000     O          -0.497813           
         O14       1.0000    0.84106   0.59338   0.69907   Biso      1.000     O          -0.604175           
         O15       1.0000    0.02686   0.19396   0.11854   Biso      1.000     O          -0.570291           
         O16       1.0000    0.96144   0.24233   0.31703   Biso      1.000     O          -0.583421           
         O17       1.0000    0.04994   0.74055   0.10392   Biso      1.000     O          -0.506495           
         O18       1.0000    0.96096   0.61957   0.29854   Biso      1.000     O          -0.57549  
         O19       1.0000    0.04948   0.47010   0.09374   Biso      1.000     O          -0.99106  
         O20       1.0000    0.91722   0.42420   0.48836   Biso      1.000     O          -0.882726 