
##########################################################################
#               Crystallographic Information Format file
#               Produced by PyCifRW module
#
#  This is a CIF file.  CIF has been adopted by the International
#  Union of Crystallography as the standard for data archiving and
#  transmission.
#
#  For information on this file format, follow the CIF links at
#  http://www.iucr.org
##########################################################################

data_image0

_cell_length_a                          6.7119
_cell_length_b                          24.876
_cell_length_c                          14.0647
_cell_angle_alpha                       90
_cell_angle_beta                        90
_cell_angle_gamma                       90
_symmetry_space_group_name_H-M          'P 1'
_symmetry_int_tables_number             1
loop_
  _symmetry_equiv_pos_as_xyz
         'x, y, z' 
loop_
  _atom_site_label
  _atom_site_occupancy
  _atom_site_fract_x
  _atom_site_fract_y
  _atom_site_fract_z
  _atom_site_thermal_displace_type
  _atom_site_B_iso_or_equiv
  _atom_site_type_symbol
  _atom_site_charge
         C1        1.0000    0.00000   0.57320   0.87560   Biso      1.000     C          -0.19417  
         C2        1.0000    0.50000   0.07320   0.87560   Biso      1.000     C          -0.194167           
         C3        1.0000    0.50000   0.12470   0.83330   Biso      1.000     C          0.095837  
         C4        1.0000    0.00000   0.29750   0.63910   Biso      1.000     C          0.031017000000000003          
         C5        1.0000    0.00000   0.29650   0.54010   Biso      1.000     C          -0.15470699999999998          
         C6        1.0000    0.50000   0.20350   0.45990   Biso      1.000     C          -0.15470699999999998          
         C7        1.0000    0.00000   0.37530   0.16670   Biso      1.000     C          0.095837  
         C8        1.0000    0.00000   0.42680   0.12440   Biso      1.000     C          -0.194167           
         C9        1.0000    0.00000   0.42970   0.02550   Biso      1.000     C          0.189248  
         C10       1.0000    0.50000   0.20250   0.36090   Biso      1.000     C          0.031017000000000003          
         C11       1.0000    0.00000   0.38410   0.97370   Biso      1.000     C          -0.180121           
         C12       1.0000    0.00000   0.83540   0.98130   Biso      1.000     C          0.115756  
         C13       1.0000    0.00000   0.33540   0.01870   Biso      1.000     C          0.11576199999999999           
         C14       1.0000    0.50000   0.75000   0.69040   Biso      1.000     C          -0.07697899999999999          
         C15       1.0000    0.50000   0.75000   0.79880   Biso      1.000     C          0.627556  
         C16       1.0000    0.00000   0.88410   0.02630   Biso      1.000     C          -0.180132           
         C17       1.0000    0.00000   0.70350   0.45990   Biso      1.000     C          -0.15470699999999998          
         C18       1.0000    0.50000   0.70250   0.63910   Biso      1.000     C          0.031014999999999997          
         C19       1.0000    0.50000   0.75000   0.49040   Biso      1.000     C          0.015778  
         C20       1.0000    0.00000   0.92970   0.97450   Biso      1.000     C          0.18926400000000002           
         C21       1.0000    0.50000   0.75000   0.38360   Biso      1.000     C          0.567631  
         C22       1.0000    0.50000   0.07030   0.97450   Biso      1.000     C          0.189248  
         C23       1.0000    0.00000   0.25000   0.69040   Biso      1.000     C          -0.07697999999999999          
         C24       1.0000    0.00000   0.57030   0.97450   Biso      1.000     C          0.189254  
         C25       1.0000    0.00000   0.61590   0.02630   Biso      1.000     C          -0.180119           
         C26       1.0000    0.00000   0.70250   0.36090   Biso      1.000     C          0.031017000000000003          
         C27       1.0000    0.00000   0.66460   0.98130   Biso      1.000     C          0.11576099999999999           
         C28       1.0000    0.00000   0.25000   0.79880   Biso      1.000     C          0.627556  
         C29       1.0000    0.00000   0.25000   0.49040   Biso      1.000     C          0.015792  
         C30       1.0000    0.00000   0.25000   0.38360   Biso      1.000     C          0.567629  
         C31       1.0000    0.50000   0.16460   0.98130   Biso      1.000     C          0.115754  
         C32       1.0000    0.50000   0.79750   0.63910   Biso      1.000     C          0.031014999999999997          
         C33       1.0000    0.50000   0.79650   0.54010   Biso      1.000     C          -0.154692           
         C34       1.0000    0.50000   0.11590   0.02630   Biso      1.000     C          -0.18011300000000002          
         C35       1.0000    0.50000   0.87530   0.16670   Biso      1.000     C          0.095837  
         C36       1.0000    0.50000   0.29750   0.36090   Biso      1.000     C          0.031016000000000002          
         C37       1.0000    0.50000   0.92680   0.12440   Biso      1.000     C          -0.19417  
         C38       1.0000    0.50000   0.92970   0.02550   Biso      1.000     C          0.189254  
         C39       1.0000    0.50000   0.88410   0.97370   Biso      1.000     C          -0.180119           
         C40       1.0000    0.50000   0.83540   0.01870   Biso      1.000     C          0.11576099999999999           
         C41       1.0000    0.50000   0.70350   0.54010   Biso      1.000     C          -0.154692           
         C42       1.0000    0.00000   0.62470   0.83330   Biso      1.000     C          0.09583799999999999           
         C43       1.0000    0.50000   0.62470   0.16670   Biso      1.000     C          0.095837  
         C44       1.0000    0.00000   0.07320   0.12440   Biso      1.000     C          -0.194172           
         C45       1.0000    0.00000   0.92680   0.87560   Biso      1.000     C          -0.194168           
         C46       1.0000    0.00000   0.11590   0.97370   Biso      1.000     C          -0.180137           
         C47       1.0000    0.50000   0.42970   0.97450   Biso      1.000     C          0.189254  
         C48       1.0000    0.00000   0.16460   0.01870   Biso      1.000     C          0.115764  
         C49       1.0000    0.00000   0.75000   0.50960   Biso      1.000     C          0.015792  
         C50       1.0000    0.00000   0.75000   0.30960   Biso      1.000     C          -0.07697999999999999          
         C51       1.0000    0.00000   0.75000   0.20120   Biso      1.000     C          0.627556  
         C52       1.0000    0.50000   0.25000   0.61640   Biso      1.000     C          0.567629  
         C53       1.0000    0.50000   0.25000   0.50960   Biso      1.000     C          0.015792  
         C54       1.0000    0.50000   0.25000   0.30960   Biso      1.000     C          -0.07697999999999999          
         C55       1.0000    0.50000   0.25000   0.20120   Biso      1.000     C          0.627556  
         C56       1.0000    0.50000   0.42680   0.87560   Biso      1.000     C          -0.19417  
         C57       1.0000    0.50000   0.37530   0.83330   Biso      1.000     C          0.09583799999999999           
         C58       1.0000    0.50000   0.29650   0.45990   Biso      1.000     C          -0.154693           
         C59       1.0000    0.50000   0.38410   0.02630   Biso      1.000     C          -0.180119           
         C60       1.0000    0.00000   0.12470   0.16670   Biso      1.000     C          0.09583799999999999           
         C61       1.0000    0.00000   0.07030   0.02550   Biso      1.000     C          0.189271  
         C62       1.0000    0.00000   0.79650   0.45990   Biso      1.000     C          -0.154693           
         C63       1.0000    0.00000   0.20350   0.54010   Biso      1.000     C          -0.154693           
         C64       1.0000    0.50000   0.33540   0.98130   Biso      1.000     C          0.11576099999999999           
         C65       1.0000    0.00000   0.20250   0.63910   Biso      1.000     C          0.031014999999999997          
         C66       1.0000    0.50000   0.61590   0.97370   Biso      1.000     C          -0.18013900000000002          
         C67       1.0000    0.50000   0.57030   0.02550   Biso      1.000     C          0.18926500000000002           
         C68       1.0000    0.00000   0.79750   0.36090   Biso      1.000     C          0.031014999999999997          
         C69       1.0000    0.50000   0.57320   0.12440   Biso      1.000     C          -0.194168           
         C70       1.0000    0.00000   0.87530   0.83330   Biso      1.000     C          0.095837  
         C71       1.0000    0.00000   0.75000   0.61640   Biso      1.000     C          0.567629  
         C72       1.0000    0.50000   0.66460   0.01870   Biso      1.000     C          0.115764  
         Cd1       1.0000    0.00000   0.25000   0.19228   Biso      1.000     Cd          0.8710680000000001  
         Cd2       1.0000    0.00000   0.75000   0.80772   Biso      1.000     Cd          0.8710680000000001  
         Cd3       1.0000    0.50000   0.25000   0.80772   Biso      1.000     Cd          0.8710680000000001  
         Cd4       1.0000    0.50000   0.75000   0.19228   Biso      1.000     Cd          0.8710680000000001  
         H1        1.0000    0.50000   0.37230   0.76600   Biso      1.000     H          0.103453  
         H2        1.0000    0.50000   0.45840   0.83780   Biso      1.000     H          0.136178  
         H3        1.0000    0.00000   0.67040   0.49360   Biso      1.000     H          0.122697  
         H4        1.0000    0.00000   0.95840   0.83780   Biso      1.000     H          0.136179  
         H5        1.0000    0.50000   0.32960   0.49360   Biso      1.000     H          0.122696  
         H6        1.0000    0.50000   0.30370   0.01910   Biso      1.000     H          0.10082100000000001           
         H7        1.0000    0.00000   0.87230   0.76600   Biso      1.000     H          0.103453  
         H8        1.0000    0.50000   0.19630   0.01910   Biso      1.000     H          0.10082200000000001           
         H9        1.0000    0.50000   0.12770   0.76600   Biso      1.000     H          0.103453  
         H10       1.0000    0.50000   0.11420   0.09380   Biso      1.000     H          0.147697  
         H11       1.0000    0.00000   0.82960   0.49360   Biso      1.000     H          0.122696  
         H12       1.0000    0.50000   0.38580   0.09380   Biso      1.000     H          0.147698  
         H13       1.0000    0.50000   0.17040   0.49360   Biso      1.000     H          0.122697  
         H14       1.0000    0.50000   0.04160   0.83780   Biso      1.000     H          0.136179  
         H15       1.0000    0.00000   0.80370   0.01910   Biso      1.000     H          0.10082200000000001           
         H16       1.0000    0.00000   0.88580   0.09380   Biso      1.000     H          0.147698  
         H17       1.0000    0.50000   0.95840   0.16220   Biso      1.000     H          0.136178  
         H18       1.0000    0.00000   0.54160   0.83780   Biso      1.000     H          0.136178  
         H19       1.0000    0.50000   0.54160   0.16220   Biso      1.000     H          0.13618   
         H20       1.0000    0.00000   0.62770   0.76600   Biso      1.000     H          0.103453  
         H21       1.0000    0.50000   0.61420   0.90620   Biso      1.000     H          0.147699  
         H22       1.0000    0.00000   0.30370   0.98090   Biso      1.000     H          0.10082100000000001           
         H23       1.0000    0.50000   0.69630   0.98090   Biso      1.000     H          0.10082100000000001           
         H24       1.0000    0.00000   0.38580   0.90620   Biso      1.000     H          0.147697  
         H25       1.0000    0.00000   0.45840   0.16220   Biso      1.000     H          0.136179  
         H26       1.0000    0.00000   0.37230   0.23400   Biso      1.000     H          0.103453  
         H27       1.0000    0.00000   0.32960   0.50640   Biso      1.000     H          0.122697  
         H28       1.0000    0.50000   0.67040   0.50640   Biso      1.000     H          0.122696  
         H29       1.0000    0.50000   0.80370   0.98090   Biso      1.000     H          0.10082100000000001           
         H30       1.0000    0.50000   0.62770   0.23400   Biso      1.000     H          0.103453  
         H31       1.0000    0.00000   0.61420   0.09380   Biso      1.000     H          0.147698  
         H32       1.0000    0.50000   0.87230   0.23400   Biso      1.000     H          0.103453  
         H33       1.0000    0.50000   0.82960   0.50640   Biso      1.000     H          0.122696  
         H34       1.0000    0.00000   0.69630   0.01910   Biso      1.000     H          0.10082100000000001           
         H35       1.0000    0.00000   0.17040   0.50640   Biso      1.000     H          0.122696  
         H36       1.0000    0.00000   0.12770   0.23400   Biso      1.000     H          0.103453  
         H37       1.0000    0.00000   0.19630   0.98090   Biso      1.000     H          0.10082100000000001           
         H38       1.0000    0.50000   0.88580   0.90620   Biso      1.000     H          0.147698  
         H39       1.0000    0.00000   0.11420   0.90620   Biso      1.000     H          0.1477    
         H40       1.0000    0.00000   0.04160   0.16220   Biso      1.000     H          0.136178  
         N1        1.0000    0.50000   0.34890   0.32200   Biso      1.000     N          0.609248  
         N2        1.0000    0.00000   0.16980   0.11310   Biso      1.000     N          -0.20794899999999997          
         N3        1.0000    0.00000   0.01940   0.97450   Biso      1.000     N          -0.104854           
         N4        1.0000    0.00000   0.83020   0.88690   Biso      1.000     N          -0.207948           
         N5        1.0000    0.50000   0.48060   0.02550   Biso      1.000     N          -0.104853           
         N6        1.0000    0.00000   0.84890   0.32200   Biso      1.000     N          0.609248  
         N7        1.0000    0.00000   0.15110   0.67800   Biso      1.000     N          0.609248  
         N8        1.0000    0.00000   0.98060   0.02550   Biso      1.000     N          -0.10476400000000001          
         N9        1.0000    0.50000   0.51940   0.97450   Biso      1.000     N          -0.10476400000000001          
         N10       1.0000    0.50000   0.65110   0.67800   Biso      1.000     N          0.609248  
         N11       1.0000    0.00000   0.66980   0.88690   Biso      1.000     N          -0.20794899999999997          
         N12       1.0000    0.00000   0.51940   0.02550   Biso      1.000     N          -0.104854           
         N13       1.0000    0.00000   0.65110   0.32200   Biso      1.000     N          0.609248  
         N14       1.0000    0.50000   0.66980   0.11310   Biso      1.000     N          -0.20794899999999997          
         N15       1.0000    0.50000   0.98060   0.97450   Biso      1.000     N          -0.104853           
         N16       1.0000    0.50000   0.83020   0.11310   Biso      1.000     N          -0.20794899999999997          
         N17       1.0000    0.00000   0.34890   0.67800   Biso      1.000     N          0.609248  
         N18       1.0000    0.50000   0.84890   0.67800   Biso      1.000     N          0.609248  
         N19       1.0000    0.00000   0.33020   0.11310   Biso      1.000     N          -0.20794899999999997          
         N20       1.0000    0.50000   0.16980   0.88690   Biso      1.000     N          -0.207948           
         N21       1.0000    0.50000   0.01940   0.02550   Biso      1.000     N          -0.10476400000000001          
         N22       1.0000    0.50000   0.15110   0.32200   Biso      1.000     N          0.609248  
         N23       1.0000    0.00000   0.48060   0.97450   Biso      1.000     N          -0.10476300000000001          
         N24       1.0000    0.50000   0.33020   0.88690   Biso      1.000     N          -0.20794899999999997          
         O1        1.0000    0.50000   0.35510   0.23930   Biso      1.000     O          -0.504143           
         O2        1.0000    0.50000   0.20570   0.65890   Biso      1.000     O          -0.5573739999999999           
         O3        1.0000    0.16060   0.25000   0.83960   Biso      1.000     O          -0.5762390000000001           
         O4        1.0000    0.66060   0.75000   0.83960   Biso      1.000     O          -0.5762390000000001           
         O5        1.0000    0.83940   0.25000   0.83960   Biso      1.000     O          -0.576238           
         O6        1.0000    0.33940   0.75000   0.83960   Biso      1.000     O          -0.5762390000000001           
         O7        1.0000    0.83940   0.75000   0.16040   Biso      1.000     O          -0.576238           
         O8        1.0000    0.33940   0.25000   0.16040   Biso      1.000     O          -0.576238           
         O9        1.0000    0.11300   0.11600   0.63600   Biso      1.000     O          -0.087496           
         O10       1.0000    0.00000   0.70570   0.65890   Biso      1.000     O          -0.5573739999999999           
         O11       1.0000    0.61300   0.61600   0.63600   Biso      1.000     O          -0.087496           
         O12       1.0000    0.88700   0.38400   0.63600   Biso      1.000     O          -0.087496           
         O13       1.0000    0.38700   0.88400   0.63600   Biso      1.000     O          -0.087496           
         O14       1.0000    0.88700   0.61600   0.36400   Biso      1.000     O          -0.087496           
         O15       1.0000    0.38700   0.11600   0.36400   Biso      1.000     O          -0.087496           
         O16       1.0000    0.11300   0.88400   0.36400   Biso      1.000     O          -0.087496           
         O17       1.0000    0.61300   0.38400   0.36400   Biso      1.000     O          -0.087496           
         O18       1.0000    0.88700   0.88400   0.36400   Biso      1.000     O          -0.087496           
         O19       1.0000    0.38700   0.38400   0.36400   Biso      1.000     O          -0.087496           
         O20       1.0000    0.11300   0.61600   0.36400   Biso      1.000     O          -0.087496           
         O21       1.0000    0.61300   0.11600   0.36400   Biso      1.000     O          -0.087496           
         O22       1.0000    0.11300   0.38400   0.63600   Biso      1.000     O          -0.087496           
         O23       1.0000    0.61300   0.88400   0.63600   Biso      1.000     O          -0.087497           
         O24       1.0000    0.00000   0.85510   0.23930   Biso      1.000     O          -0.504143           
         O25       1.0000    0.88700   0.11600   0.63600   Biso      1.000     O          -0.087497           
         O26       1.0000    0.00000   0.29430   0.34110   Biso      1.000     O          -0.5573739999999999           
         O27       1.0000    0.00000   0.14490   0.76070   Biso      1.000     O          -0.504143           
         O28       1.0000    0.50000   0.79430   0.34110   Biso      1.000     O          -0.5573739999999999           
         O29       1.0000    0.50000   0.64490   0.76070   Biso      1.000     O          -0.504143           
         O30       1.0000    0.00000   0.20570   0.34110   Biso      1.000     O          -0.5573739999999999           
         O31       1.0000    0.00000   0.35510   0.76070   Biso      1.000     O          -0.504143           
         O32       1.0000    0.50000   0.70570   0.34110   Biso      1.000     O          -0.5573739999999999           
         O33       1.0000    0.50000   0.85510   0.76070   Biso      1.000     O          -0.504143           
         O34       1.0000    0.16060   0.75000   0.16040   Biso      1.000     O          -0.576238           
         O35       1.0000    0.00000   0.79430   0.65890   Biso      1.000     O          -0.5573739999999999           
         O36       1.0000    0.00000   0.64490   0.23930   Biso      1.000     O          -0.504143           
         O37       1.0000    0.50000   0.29430   0.65890   Biso      1.000     O          -0.5573739999999999           
         O38       1.0000    0.50000   0.14490   0.23930   Biso      1.000     O          -0.504143           
         O39       1.0000    0.38700   0.61600   0.63600   Biso      1.000     O          -0.087497           
         O40       1.0000    0.66060   0.25000   0.16040   Biso      1.000     O          -0.576238 