
##########################################################################
#               Crystallographic Information Format file
#               Produced by PyCifRW module
#
#  This is a CIF file.  CIF has been adopted by the International
#  Union of Crystallography as the standard for data archiving and
#  transmission.
#
#  For information on this file format, follow the CIF links at
#  http://www.iucr.org
##########################################################################

data_image0

_cell_length_a                          10.426
_cell_length_b                          14.962
_cell_length_c                          21.102
_cell_angle_alpha                       100.01
_cell_angle_beta                        93.54
_cell_angle_gamma                       106.9
_symmetry_space_group_name_H-M          'P 1'
_symmetry_int_tables_number             1
loop_
  _symmetry_equiv_pos_as_xyz
         'x, y, z' 
loop_
  _atom_site_label
  _atom_site_occupancy
  _atom_site_fract_x
  _atom_site_fract_y
  _atom_site_fract_z
  _atom_site_thermal_displace_type
  _atom_site_B_iso_or_equiv
  _atom_site_type_symbol
  _atom_site_charge
         C1        1.0000    0.53440   0.04540   0.49080   Biso      1.000     C          -0.233338           
         C2        1.0000    0.64960   0.26340   0.68660   Biso      1.000     C          -0.109137           
         C3        1.0000    0.97210   0.00320   0.53080   Biso      1.000     C          -0.232524           
         C4        1.0000    0.44950   0.11290   0.49290   Biso      1.000     C          0.194058  
         C5        1.0000    0.30700   0.65260   0.33670   Biso      1.000     C          -0.085443           
         C6        1.0000    0.10680   0.91570   0.58290   Biso      1.000     C          -0.195835           
         C7        1.0000    0.40090   0.13440   0.43770   Biso      1.000     C          -0.192903           
         C8        1.0000    0.85060   0.29290   0.21880   Biso      1.000     C          -0.096698           
         C9        1.0000    0.41470   0.14980   0.55070   Biso      1.000     C          -0.203846           
         C10       1.0000    0.19430   0.05160   0.68940   Biso      1.000     C          0.106988  
         C11       1.0000    0.10630   0.06270   0.64260   Biso      1.000     C          -0.197786           
         C12       1.0000    0.69300   0.34740   0.66330   Biso      1.000     C          -0.085444           
         C13       1.0000    0.33900   0.21260   0.55080   Biso      1.000     C          0.091243  
         C14       1.0000    0.71480   0.62430   0.25290   Biso      1.000     C          -0.082994           
         C15       1.0000    0.41100   0.67530   0.64550   Biso      1.000     C          -0.139249           
         C16       1.0000    0.52000   0.55340   0.63550   Biso      1.000     C          -0.093277           
         C17       1.0000    0.61900   0.60950   0.68390   Biso      1.000     C          -0.077568           
         C18       1.0000    0.51200   0.73220   0.69390   Biso      1.000     C          -0.042713           
         C19       1.0000    0.85190   0.65460   0.26430   Biso      1.000     C          -0.080468           
         C20       1.0000    0.61600   0.69910   0.71240   Biso      1.000     C          -0.091763           
         C21       1.0000    0.64830   0.66270   0.21180   Biso      1.000     C          -0.053477           
         C22       1.0000    0.41150   0.58480   0.61600   Biso      1.000     C          -0.036792           
         C23       1.0000    0.97870   0.18180   0.21900   Biso      1.000     C          -0.02467  
         C24       1.0000    0.86230   0.76080   0.19040   Biso      1.000     C          -0.021433           
         C25       1.0000    0.66240   0.10370   0.69540   Biso      1.000     C          0.615667  
         C26       1.0000    0.51080   0.82970   0.72440   Biso      1.000     C          0.604525  
         C27       1.0000    0.30040   0.52220   0.56530   Biso      1.000     C          0.619588  
         C28       1.0000    0.94160   0.83220   0.15340   Biso      1.000     C          0.599401  
         C29       1.0000    0.90570   0.33520   0.28190   Biso      1.000     C          -0.092058           
         C30       1.0000    0.61590   0.17300   0.04300   Biso      1.000     C          -0.091143           
         C31       1.0000    0.72360   0.73170   0.18110   Biso      1.000     C          -0.135488           
         C32       1.0000    0.32350   0.19450   0.44170   Biso      1.000     C          0.099329  
         C33       1.0000    0.62570   0.15430   0.97690   Biso      1.000     C          -0.095881           
         C34       1.0000    0.88830   0.21690   0.18720   Biso      1.000     C          -0.10036  
         C35       1.0000    0.06160   0.99420   0.58680   Biso      1.000     C          0.201137  
         C36       1.0000    0.92670   0.72190   0.23280   Biso      1.000     C          -0.08666  
         C37       1.0000    0.49620   0.62730   0.19640   Biso      1.000     C          0.586266  
         C38       1.0000    0.85800   0.29100   0.60860   Biso      1.000     C          -0.029564           
         C39       1.0000    0.19640   0.91080   0.63190   Biso      1.000     C          0.0964    
         C40       1.0000    0.79470   0.36010   0.62360   Biso      1.000     C          -0.087938           
         C41       1.0000    0.96860   0.30760   0.56710   Biso      1.000     C          0.593853  
         C42       1.0000    0.62140   0.91200   0.97770   Biso      1.000     C          -0.036742           
         C43       1.0000    0.97920   0.89980   0.81650   Biso      1.000     C          0.609724  
         C44       1.0000    0.93840   0.00580   0.41320   Biso      1.000     C          0.201128  
         C45       1.0000    0.07330   0.27810   0.76720   Biso      1.000     C          -0.086668           
         C46       1.0000    0.50380   0.37270   0.80360   Biso      1.000     C          0.58626   
         C47       1.0000    0.14200   0.70900   0.39140   Biso      1.000     C          -0.029567           
         C48       1.0000    0.80360   0.08920   0.36810   Biso      1.000     C          0.096395  
         C49       1.0000    0.58850   0.41520   0.38400   Biso      1.000     C          -0.036794           
         C50       1.0000    0.20530   0.63990   0.37640   Biso      1.000     C          -0.087941           
         C51       1.0000    0.35170   0.33730   0.78820   Biso      1.000     C          -0.053477           
         C52       1.0000    0.14810   0.34540   0.73570   Biso      1.000     C          -0.080464           
         C53       1.0000    0.35040   0.73660   0.31340   Biso      1.000     C          -0.109136           
         C54       1.0000    0.02790   0.99680   0.46920   Biso      1.000     C          -0.232522           
         C55       1.0000    0.55050   0.88710   0.50710   Biso      1.000     C          0.194057  
         C56       1.0000    0.46560   0.95460   0.50920   Biso      1.000     C          -0.233337           
         C57       1.0000    0.89320   0.08430   0.41710   Biso      1.000     C          -0.195834           
         C58       1.0000    0.59910   0.86560   0.56230   Biso      1.000     C          -0.192906           
         C59       1.0000    0.14940   0.70710   0.78120   Biso      1.000     C          -0.096702           
         C60       1.0000    0.58530   0.85020   0.44930   Biso      1.000     C          -0.203844           
         C61       1.0000    0.11170   0.78310   0.81280   Biso      1.000     C          -0.100361           
         C62       1.0000    0.37430   0.84570   0.02310   Biso      1.000     C          -0.095881           
         C63       1.0000    0.67650   0.80550   0.55830   Biso      1.000     C          0.099326  
         C64       1.0000    0.27640   0.26830   0.81890   Biso      1.000     C          -0.1355   
         C65       1.0000    0.18170   0.79150   0.36600   Biso      1.000     C          -0.147068           
         C66       1.0000    0.97010   0.77680   0.71760   Biso      1.000     C          -0.132836           
         C67       1.0000    0.75200   0.95520   0.95390   Biso      1.000     C          0.628065  
         C68       1.0000    0.61210   0.92720   0.04260   Biso      1.000     C          -0.115704           
         C69       1.0000    0.47820   0.92540   0.13770   Biso      1.000     C          0.599717  
         C70       1.0000    0.94940   0.65410   0.61650   Biso      1.000     C          0.606688  
         C71       1.0000    0.00490   0.69830   0.68610   Biso      1.000     C          -0.036139           
         C72       1.0000    0.28660   0.80630   0.32860   Biso      1.000     C          -0.022769           
         C73       1.0000    0.51290   0.10490   0.93370   Biso      1.000     C          -0.024234           
         C74       1.0000    0.50590   0.86190   0.93350   Biso      1.000     C          -0.088689           
         C75       1.0000    0.02130   0.81820   0.78100   Biso      1.000     C          -0.024669           
         C76       1.0000    0.13770   0.23920   0.80960   Biso      1.000     C          -0.021424           
         C77       1.0000    0.33760   0.89630   0.30460   Biso      1.000     C          0.615664  
         C78       1.0000    0.48920   0.17030   0.27560   Biso      1.000     C          0.604523  
         C79       1.0000    0.69960   0.47780   0.43470   Biso      1.000     C          0.619589  
         C80       1.0000    0.05840   0.16780   0.84660   Biso      1.000     C          0.599396  
         C81       1.0000    0.09430   0.66480   0.71810   Biso      1.000     C          -0.092051           
         C82       1.0000    0.38410   0.82700   0.95700   Biso      1.000     C          -0.091141           
         C83       1.0000    0.48710   0.89510   0.06630   Biso      1.000     C          -0.024232           
         C84       1.0000    0.49410   0.13810   0.06650   Biso      1.000     C          -0.088687           
         C85       1.0000    0.71340   0.19370   0.67140   Biso      1.000     C          -0.022767           
         C86       1.0000    0.99510   0.30170   0.31390   Biso      1.000     C          -0.036131           
         C87       1.0000    0.03140   0.69240   0.43290   Biso      1.000     C          0.593853  
         C88       1.0000    0.38400   0.30090   0.28760   Biso      1.000     C          -0.091763           
         C89       1.0000    0.48800   0.26780   0.30610   Biso      1.000     C          -0.042713           
         C90       1.0000    0.38100   0.39050   0.31610   Biso      1.000     C          -0.077574           
         C91       1.0000    0.48000   0.44660   0.36450   Biso      1.000     C          -0.09327  
         C92       1.0000    0.58900   0.32470   0.35450   Biso      1.000     C          -0.139248           
         C93       1.0000    0.28520   0.37570   0.74710   Biso      1.000     C          -0.082989           
         C94       1.0000    0.66100   0.78740   0.44920   Biso      1.000     C          0.091246  
         C95       1.0000    0.80570   0.94840   0.31060   Biso      1.000     C          0.106989  
         C96       1.0000    0.89370   0.93730   0.35740   Biso      1.000     C          -0.19778  
         C97       1.0000    0.05060   0.34590   0.38350   Biso      1.000     C          0.606689  
         C98       1.0000    0.52180   0.07460   0.86230   Biso      1.000     C          0.599719  
         C99       1.0000    0.38790   0.07280   0.95740   Biso      1.000     C          -0.115717           
         C100      1.0000    0.24800   0.04480   0.04610   Biso      1.000     C          0.628062  
         C101      1.0000    0.02990   0.22320   0.28240   Biso      1.000     C          -0.132833           
         C102      1.0000    0.81830   0.20850   0.63400   Biso      1.000     C          -0.147068           
         C103      1.0000    0.02080   0.10020   0.18350   Biso      1.000     C          0.609722  
         C104      1.0000    0.37860   0.08800   0.02230   Biso      1.000     C          -0.036733           
         H1        1.0000    0.47560   0.50590   0.38460   Biso      1.000     H          0.114329  
         H2        1.0000    0.57900   0.25380   0.71210   Biso      1.000     H          0.108218  
         H3        1.0000    0.95470   0.06400   0.54130   Biso      1.000     H          0.114152  
         H4        1.0000    0.88630   0.95340   0.52590   Biso      1.000     H          0.113677  
         H5        1.0000    0.61730   0.07680   0.51970   Biso      1.000     H          0.118734  
         H6        1.0000    0.55850   0.03210   0.44720   Biso      1.000     H          0.112156  
         H7        1.0000    0.44070   0.13340   0.58900   Biso      1.000     H          0.133165  
         H8        1.0000    0.42050   0.10820   0.39760   Biso      1.000     H          0.133683  
         H9        1.0000    0.78880   0.31510   0.19770   Biso      1.000     H          0.110679  
         H10       1.0000    0.89540   0.62990   0.29350   Biso      1.000     H          0.112066  
         H11       1.0000    0.22120   0.09830   0.72710   Biso      1.000     H          0.08301   
         H12       1.0000    0.07660   0.86590   0.54710   Biso      1.000     H          0.129822  
         H13       1.0000    0.82070   0.41540   0.60700   Biso      1.000     H          0.121625  
         H14       1.0000    0.29110   0.20800   0.40360   Biso      1.000     H          0.096214  
         H15       1.0000    0.02050   0.74120   0.23990   Biso      1.000     H          0.116907  
         H16       1.0000    0.85310   0.18910   0.14430   Biso      1.000     H          0.107664  
         H17       1.0000    0.70900   0.17540   0.96190   Biso      1.000     H          0.118304  
         H18       1.0000    0.07680   0.11620   0.64860   Biso      1.000     H          0.130848  
         H19       1.0000    0.67950   0.75870   0.15380   Biso      1.000     H          0.126228  
         H20       1.0000    0.69190   0.20930   0.07160   Biso      1.000     H          0.110922  
         H21       1.0000    0.88200   0.38700   0.30300   Biso      1.000     H          0.11594   
         H22       1.0000    0.36890   0.64280   0.14500   Biso      1.000     H          0.430843  
         H23       1.0000    0.48880   0.14760   0.11090   Biso      1.000     H          0.124075  
         H24       1.0000    0.31070   0.04080   0.92840   Biso      1.000     H          0.126288  
         H25       1.0000    0.08800   0.19900   0.30440   Biso      1.000     H          0.118971  
         H26       1.0000    0.86320   0.16300   0.62570   Biso      1.000     H          0.116154  
         H27       1.0000    0.22530   0.85700   0.62810   Biso      1.000     H          0.098016  
         H28       1.0000    0.65320   0.39530   0.67440   Biso      1.000     H          0.116223  
         H29       1.0000    0.32000   0.24090   0.59050   Biso      1.000     H          0.091321  
         H30       1.0000    0.66550   0.57710   0.27300   Biso      1.000     H          0.115854  
         H31       1.0000    0.42100   0.74620   0.28790   Biso      1.000     H          0.108215  
         H32       1.0000    0.04530   0.93600   0.45870   Biso      1.000     H          0.114153  
         H33       1.0000    0.11370   0.04660   0.47410   Biso      1.000     H          0.113675  
         H34       1.0000    0.38270   0.92320   0.48030   Biso      1.000     H          0.118735  
         H35       1.0000    0.44150   0.96790   0.55280   Biso      1.000     H          0.112154  
         H36       1.0000    0.92340   0.13410   0.45290   Biso      1.000     H          0.129819  
         H37       1.0000    0.57950   0.89180   0.60240   Biso      1.000     H          0.133681  
         H38       1.0000    0.21120   0.68490   0.80230   Biso      1.000     H          0.110675  
         H39       1.0000    0.55930   0.86660   0.41100   Biso      1.000     H          0.133166  
         H40       1.0000    0.77880   0.90170   0.27290   Biso      1.000     H          0.083008  
         H41       1.0000    0.92320   0.88380   0.35140   Biso      1.000     H          0.130846  
         H42       1.0000    0.34680   0.60470   0.32560   Biso      1.000     H          0.116221  
         H43       1.0000    0.68000   0.75910   0.40950   Biso      1.000     H          0.091322  
         H44       1.0000    0.33450   0.42290   0.72700   Biso      1.000     H          0.11586   
         H45       1.0000    0.65830   0.30190   0.36750   Biso      1.000     H          0.120614  
         H46       1.0000    0.10460   0.37010   0.70650   Biso      1.000     H          0.112072  
         H47       1.0000    0.31160   0.41280   0.30250   Biso      1.000     H          0.114418  
         H48       1.0000    0.17930   0.58460   0.39300   Biso      1.000     H          0.121623  
         H49       1.0000    0.97950   0.25880   0.76010   Biso      1.000     H          0.116911  
         H50       1.0000    0.34170   0.69810   0.63250   Biso      1.000     H          0.120615  
         H51       1.0000    0.52440   0.49410   0.61540   Biso      1.000     H          0.11433   
         H52       1.0000    0.68840   0.58720   0.69750   Biso      1.000     H          0.114416  
         H53       1.0000    0.31530   0.26260   0.25550   Biso      1.000     H          0.117704  
         H54       1.0000    0.13680   0.83700   0.37430   Biso      1.000     H          0.116151  
         H55       1.0000    0.91200   0.80100   0.69560   Biso      1.000     H          0.118972  
         H56       1.0000    0.68930   0.95920   0.07160   Biso      1.000     H          0.126288  
         H57       1.0000    0.51120   0.85240   0.88910   Biso      1.000     H          0.124074  
         H58       1.0000    0.63110   0.35720   0.85500   Biso      1.000     H          0.430823  
         H59       1.0000    0.11800   0.61300   0.69700   Biso      1.000     H          0.115939  
         H60       1.0000    0.30810   0.79070   0.92840   Biso      1.000     H          0.110921  
         H61       1.0000    0.32050   0.24130   0.84620   Biso      1.000     H          0.126233  
         H62       1.0000    0.70890   0.79200   0.59640   Biso      1.000     H          0.096212  
         H63       1.0000    0.29100   0.82460   0.03810   Biso      1.000     H          0.118313  
         H64       1.0000    0.14690   0.81090   0.85570   Biso      1.000     H          0.107666  
         H65       1.0000    0.77470   0.14300   0.37190   Biso      1.000     H          0.098014  
         H66       1.0000    0.68470   0.73740   0.74450   Biso      1.000     H          0.117704  
         Mn1       1.0000    0.23651   0.98779   0.19775   Biso      1.000     Mn          1.127287  
         Mn2       1.0000    0.00000   0.50000   0.50000   Biso      1.000     Mn          1.120482  
         Mn3       1.0000    0.76349   0.01221   0.80225   Biso      1.000     Mn          1.127289  
         N1        1.0000    0.29220   0.23450   0.49750   Biso      1.000     N          -0.220602           
         N2        1.0000    0.24340   0.97930   0.68430   Biso      1.000     N          -0.227619           
         N3        1.0000    0.70780   0.76550   0.50250   Biso      1.000     N          -0.220602           
         N4        1.0000    0.75660   0.02070   0.31570   Biso      1.000     N          -0.227617           
         O1        1.0000    0.30330   0.43670   0.55060   Biso      1.000     O          -0.578914           
         O2        1.0000    0.04070   0.25290   0.56050   Biso      1.000     O          -0.554513           
         O3        1.0000    0.86020   0.97670   0.99250   Biso      1.000     O          -0.571807           
         O4        1.0000    0.90760   0.93490   0.78460   Biso      1.000     O          -0.578082           
         O5        1.0000    0.01820   0.92640   0.87690   Biso      1.000     O          -0.576816           
         O6        1.0000    0.75760   0.97280   0.89880   Biso      1.000     O          -0.556011           
         O7        1.0000    0.89180   0.70260   0.58760   Biso      1.000     O          -0.5686   
         O8        1.0000    0.58430   0.14400   0.29580   Biso      1.000     O          -0.547002           
         O9        1.0000    0.46480   0.92400   0.30410   Biso      1.000     O          -0.582701           
         O10       1.0000    0.96390   0.57650   0.59180   Biso      1.000     O          -0.571087           
         O11       1.0000    0.01090   0.62510   0.46300   Biso      1.000     O          -0.58186  
         O12       1.0000    0.58940   0.96950   0.17260   Biso      1.000     O          -0.532399           
         O13       1.0000    0.39640   0.11980   0.23210   Biso      1.000     O          -0.600491           
         O14       1.0000    0.63490   0.09370   0.84260   Biso      1.000     O          -0.582412           
         O15       1.0000    0.78660   0.44660   0.45670   Biso      1.000     O          -0.565423           
         O16       1.0000    0.69670   0.56330   0.44940   Biso      1.000     O          -0.578913           
         O17       1.0000    0.12580   0.14340   0.88750   Biso      1.000     O          -0.522135           
         O18       1.0000    0.93270   0.13960   0.83570   Biso      1.000     O          -0.588768           
         O19       1.0000    0.55210   0.32710   0.84140   Biso      1.000     O          -0.502611           
         O20       1.0000    0.57030   0.43960   0.78160   Biso      1.000     O          -0.509259           
         O21       1.0000    0.25830   0.93880   0.28830   Biso      1.000     O          -0.570902           
         O22       1.0000    0.42970   0.56040   0.21840   Biso      1.000     O          -0.509265           
         O23       1.0000    0.95930   0.74710   0.43950   Biso      1.000     O          -0.554514           
         O24       1.0000    0.06730   0.86040   0.16430   Biso      1.000     O          -0.588772           
         O25       1.0000    0.13980   0.02330   0.00750   Biso      1.000     O          -0.57181  
         O26       1.0000    0.09240   0.06510   0.21540   Biso      1.000     O          -0.578083           
         O27       1.0000    0.98180   0.07360   0.12310   Biso      1.000     O          -0.576819           
         O28       1.0000    0.24240   0.02720   0.10120   Biso      1.000     O          -0.556009           
         O29       1.0000    0.44790   0.67290   0.15860   Biso      1.000     O          -0.502622           
         O30       1.0000    0.41570   0.85600   0.70420   Biso      1.000     O          -0.547001           
         O31       1.0000    0.53520   0.07600   0.69590   Biso      1.000     O          -0.5827   
         O32       1.0000    0.10820   0.29740   0.41240   Biso      1.000     O          -0.568601           
         O33       1.0000    0.74170   0.06120   0.71170   Biso      1.000     O          -0.5709   
         O34       1.0000    0.41060   0.03050   0.82740   Biso      1.000     O          -0.5324   
         O35       1.0000    0.60360   0.88020   0.76790   Biso      1.000     O          -0.600489           
         O36       1.0000    0.98910   0.37490   0.53700   Biso      1.000     O          -0.581858           
         O37       1.0000    0.21340   0.55340   0.54330   Biso      1.000     O          -0.565421           
         O38       1.0000    0.36510   0.90630   0.15740   Biso      1.000     O          -0.582412           
         O39       1.0000    0.87420   0.85660   0.11250   Biso      1.000     O          -0.522139           
         O40       1.0000    0.03610   0.42350   0.40820   Biso      1.000     O          -0.571086           
         Zn1       1.0000    0.41566   0.98487   0.73794   Biso      1.000     Zn          0.845695  
         Zn2       1.0000    0.17310   0.32334   0.50299   Biso      1.000     Zn          0.842516  
         Zn3       1.0000    0.99104   0.94880   0.06398   Biso      1.000     Zn          0.958017  
         Zn4       1.0000    0.58434   0.01513   0.26206   Biso      1.000     Zn          0.845692  
         Zn5       1.0000    0.82690   0.67666   0.49701   Biso      1.000     Zn          0.842513  
         Zn6       1.0000    0.00896   0.05120   0.93602   Biso      1.000     Zn          0.958017 