
##########################################################################
#               Crystallographic Information Format file
#               Produced by PyCifRW module
#
#  This is a CIF file.  CIF has been adopted by the International
#  Union of Crystallography as the standard for data archiving and
#  transmission.
#
#  For information on this file format, follow the CIF links at
#  http://www.iucr.org
##########################################################################

data_image0

_cell_length_a                          7.3096
_cell_length_b                          12.267
_cell_length_c                          13.891
_cell_angle_alpha                       82.96
_cell_angle_beta                        80.951
_cell_angle_gamma                       72.897
_symmetry_space_group_name_H-M          'P 1'
_symmetry_int_tables_number             1
loop_
  _symmetry_equiv_pos_as_xyz
         'x, y, z' 
loop_
  _atom_site_label
  _atom_site_occupancy
  _atom_site_fract_x
  _atom_site_fract_y
  _atom_site_fract_z
  _atom_site_thermal_displace_type
  _atom_site_B_iso_or_equiv
  _atom_site_type_symbol
  _atom_site_charge
         C1        1.0000    0.17000   0.92810   0.01100   Biso      1.000     C          0.060145000000000004          
         C2        1.0000    0.06570   0.26760   0.28510   Biso      1.000     C          0.011956  
         C3        1.0000    0.23260   0.22310   0.21800   Biso      1.000     C          -0.062338           
         C4        1.0000    0.40230   0.16310   0.25780   Biso      1.000     C          -0.125356           
         C5        1.0000    0.20800   0.73340   0.22730   Biso      1.000     C          0.6349560000000001  
         C6        1.0000    0.79230   0.74150   0.22110   Biso      1.000     C          0.6121310000000001  
         C7        1.0000    0.23580   0.24050   0.11120   Biso      1.000     C          0.602723  
         C8        1.0000    0.87470   0.33140   0.25050   Biso      1.000     C          0.598064  
         C9        1.0000    0.54180   0.41850   0.43890   Biso      1.000     C          0.049854  
         C10       1.0000    0.50080   0.39390   0.53640   Biso      1.000     C          0.072339  
         C11       1.0000    0.15000   0.04410   0.98960   Biso      1.000     C          0.07472999999999999           
         C12       1.0000    0.95730   0.17520   0.73020   Biso      1.000     C          -0.062967           
         C13       1.0000    0.91870   0.09470   0.68040   Biso      1.000     C          -0.09396900000000001          
         C14       1.0000    0.06260   0.00650   0.64010   Biso      1.000     C          -0.094709           
         C15       1.0000    0.25470   0.99900   0.64780   Biso      1.000     C          0.02513   
         C16       1.0000    0.29850   0.08080   0.69410   Biso      1.000     C          -0.156363           
         C17       1.0000    0.14740   0.16990   0.73580   Biso      1.000     C          -0.037651           
         C18       1.0000    0.40680   0.90600   0.59900   Biso      1.000     C          0.368149  
         C19       1.0000    0.59200   0.85020   0.64150   Biso      1.000     C          -0.015969999999999998         
         C20       1.0000    0.75610   0.80280   0.57820   Biso      1.000     C          -0.096588           
         C21       1.0000    0.92640   0.74660   0.61890   Biso      1.000     C          -0.12384300000000001          
         C22       1.0000    0.93430   0.73240   0.71490   Biso      1.000     C          0.011991  
         C23       1.0000    0.76740   0.77690   0.78200   Biso      1.000     C          -0.062338           
         C24       1.0000    0.59770   0.83690   0.74220   Biso      1.000     C          -0.125358           
         C25       1.0000    0.79200   0.26660   0.77270   Biso      1.000     C          0.634957  
         C26       1.0000    0.20770   0.25850   0.77890   Biso      1.000     C          0.6121310000000001  
         C27       1.0000    0.76420   0.75950   0.88880   Biso      1.000     C          0.60272   
         C28       1.0000    0.12530   0.66860   0.74950   Biso      1.000     C          0.598063  
         C29       1.0000    0.45820   0.58150   0.56110   Biso      1.000     C          0.049851  
         C30       1.0000    0.49920   0.60610   0.46360   Biso      1.000     C          0.072341  
         C31       1.0000    0.07360   0.25340   0.38110   Biso      1.000     C          -0.123803           
         C32       1.0000    0.83000   0.07190   0.98900   Biso      1.000     C          0.060142999999999995          
         C33       1.0000    0.24390   0.19720   0.42180   Biso      1.000     C          -0.0966   
         C34       1.0000    0.59320   0.09400   0.40100   Biso      1.000     C          0.36815   
         C35       1.0000    0.40800   0.14980   0.35850   Biso      1.000     C          -0.015968           
         C36       1.0000    0.04270   0.82480   0.26980   Biso      1.000     C          -0.062973           
         C37       1.0000    0.08130   0.90530   0.31960   Biso      1.000     C          -0.093979           
         C38       1.0000    0.85000   0.95590   0.01040   Biso      1.000     C          0.074732  
         C39       1.0000    0.74530   0.00100   0.35220   Biso      1.000     C          0.025124  
         C40       1.0000    0.70150   0.91920   0.30590   Biso      1.000     C          -0.156372           
         C41       1.0000    0.85260   0.83010   0.26420   Biso      1.000     C          -0.037656           
         C42       1.0000    0.93740   0.99350   0.35990   Biso      1.000     C          -0.094717           
         H1        1.0000    0.20880   0.89930   0.32600   Biso      1.000     H          0.121298  
         H2        1.0000    0.96690   0.04740   0.39170   Biso      1.000     H          0.12063099999999999           
         H3        1.0000    0.57360   0.92320   0.30250   Biso      1.000     H          0.12828599999999998           
         H4        1.0000    0.24700   0.19180   0.48890   Biso      1.000     H          0.113344  
         H5        1.0000    0.96130   0.28190   0.42300   Biso      1.000     H          0.11199100000000001           
         H6        1.0000    0.51340   0.13150   0.21620   Biso      1.000     H          0.116942  
         H7        1.0000    0.57230   0.36010   0.39720   Biso      1.000     H          0.114276  
         H8        1.0000    0.50060   0.31980   0.56040   Biso      1.000     H          0.12036500000000001           
         H9        1.0000    0.29140   0.87910   0.01970   Biso      1.000     H          0.124904  
         H10       1.0000    0.25770   0.07160   0.98170   Biso      1.000     H          0.122445  
         H11       1.0000    0.42640   0.07680   0.69750   Biso      1.000     H          0.12829200000000002           
         H12       1.0000    0.75300   0.80820   0.51110   Biso      1.000     H          0.113347  
         H13       1.0000    0.03870   0.71810   0.57700   Biso      1.000     H          0.111996  
         H14       1.0000    0.48660   0.86850   0.78380   Biso      1.000     H          0.116942  
         H15       1.0000    0.42770   0.63990   0.60280   Biso      1.000     H          0.114275  
         H16       1.0000    0.49940   0.68020   0.43960   Biso      1.000     H          0.120367  
         H17       1.0000    0.70860   0.12090   0.98030   Biso      1.000     H          0.124903  
         H18       1.0000    0.74230   0.92840   0.01830   Biso      1.000     H          0.122445  
         H19       1.0000    0.79120   0.10070   0.67400   Biso      1.000     H          0.121305  
         H20       1.0000    0.03310   0.95260   0.60830   Biso      1.000     H          0.12063900000000001           
         N1        1.0000    0.53960   0.52380   0.40140   Biso      1.000     N          -0.150811           
         N2        1.0000    0.02130   0.88480   0.01960   Biso      1.000     N          -0.174073           
         N3        1.0000    0.46040   0.47620   0.59860   Biso      1.000     N          -0.150814           
         N4        1.0000    0.97870   0.11520   0.98040   Biso      1.000     N          -0.174075           
         Ni1       1.0000    0.58402   0.56311   0.25100   Biso      1.000     Ni          0.842435  
         Ni2       1.0000    0.95207   0.28756   0.96054   Biso      1.000     Ni          0.923499  
         Ni3       1.0000    0.41598   0.43689   0.74900   Biso      1.000     Ni          0.8424389999999999  
         Ni4       1.0000    0.04793   0.71244   0.03946   Biso      1.000     Ni          0.9234969999999999  
         O1        1.0000    0.93030   0.71430   0.91760   Biso      1.000     O          -0.584847           
         O2        1.0000    0.60990   0.78950   0.94270   Biso      1.000     O          -0.554901           
         O3        1.0000    0.38330   0.87750   0.52260   Biso      1.000     O          -0.407439           
         O4        1.0000    0.26950   0.32820   0.71760   Biso      1.000     O          -0.46958999999999995          
         O5        1.0000    0.19950   0.25830   0.86860   Biso      1.000     O          -0.553348           
         O6        1.0000    0.79610   0.30630   0.84940   Biso      1.000     O          -0.601537           
         O7        1.0000    0.64790   0.29880   0.72730   Biso      1.000     O          -0.538191           
         O8        1.0000    0.84390   0.44060   0.24010   Biso      1.000     O          -0.598065           
         O9        1.0000    0.75440   0.28120   0.24630   Biso      1.000     O          -0.568045           
         O10       1.0000    0.06970   0.28570   0.08240   Biso      1.000     O          -0.584842           
         O11       1.0000    0.39010   0.21050   0.05730   Biso      1.000     O          -0.554902           
         O12       1.0000    0.61670   0.12250   0.47740   Biso      1.000     O          -0.407457           
         O13       1.0000    0.73050   0.67180   0.28240   Biso      1.000     O          -0.46959300000000004          
         O14       1.0000    0.80050   0.74170   0.13140   Biso      1.000     O          -0.55335  
         O15       1.0000    0.20390   0.69370   0.15060   Biso      1.000     O          -0.601542           
         O16       1.0000    0.35210   0.70120   0.27270   Biso      1.000     O          -0.538192           
         O17       1.0000    0.24560   0.71880   0.75370   Biso      1.000     O          -0.568044           
         O18       1.0000    0.15610   0.55940   0.75990   Biso      1.000     O          -0.598063 