
##########################################################################
#               Crystallographic Information Format file
#               Produced by PyCifRW module
#
#  This is a CIF file.  CIF has been adopted by the International
#  Union of Crystallography as the standard for data archiving and
#  transmission.
#
#  For information on this file format, follow the CIF links at
#  http://www.iucr.org
##########################################################################

data_image0

_cell_length_a                          10.738
_cell_length_b                          10.7619
_cell_length_c                          18.547
_cell_angle_alpha                       105.928
_cell_angle_beta                        90
_cell_angle_gamma                       119.927
_symmetry_space_group_name_H-M          'P 1'
_symmetry_int_tables_number             1
loop_
  _symmetry_equiv_pos_as_xyz
         'x, y, z' 
loop_
  _atom_site_label
  _atom_site_occupancy
  _atom_site_fract_x
  _atom_site_fract_y
  _atom_site_fract_z
  _atom_site_thermal_displace_type
  _atom_site_B_iso_or_equiv
  _atom_site_type_symbol
  _atom_site_charge
         C1        1.0000    0.01800   0.22260   0.28950   Biso      1.000     C          0.682425  
         C2        1.0000    0.05110   0.79280   0.42420   Biso      1.000     C          0.687976  
         C3        1.0000    0.50460   0.46500   0.56580   Biso      1.000     C          -0.101848           
         C4        1.0000    0.42710   0.42660   0.18900   Biso      1.000     C          -0.103159           
         C5        1.0000    0.55720   0.56240   0.22140   Biso      1.000     C          -0.101962           
         C6        1.0000    0.03900   0.77620   0.98250   Biso      1.000     C          0.675089  
         C7        1.0000    0.50370   0.41280   0.06820   Biso      1.000     C          -0.095094           
         C8        1.0000    0.65780   0.62560   0.17620   Biso      1.000     C          -0.047433           
         C9        1.0000    0.63120   0.54880   0.09910   Biso      1.000     C          -0.111664           
         C10       1.0000    0.97990   0.59780   0.05800   Biso      1.000     C          -0.107674           
         C11       1.0000    0.38700   0.36620   0.50790   Biso      1.000     C          -0.022146           
         C12       1.0000    0.40180   0.35200   0.11150   Biso      1.000     C          -0.02295  
         C13       1.0000    0.79540   0.77740   0.21050   Biso      1.000     C          0.682359  
         C14       1.0000    0.25830   0.20720   0.07580   Biso      1.000     C          0.688004  
         C15       1.0000    0.02080   0.63380   0.99210   Biso      1.000     C          -0.02219  
         C16       1.0000    0.00050   0.57340   0.31100   Biso      1.000     C          -0.103181           
         C17       1.0000    0.99480   0.43760   0.27860   Biso      1.000     C          -0.101967           
         C18       1.0000    0.26280   0.22380   0.51750   Biso      1.000     C          0.675064  
         C19       1.0000    0.09090   0.58720   0.43180   Biso      1.000     C          -0.095104           
         C20       1.0000    0.03220   0.37440   0.32380   Biso      1.000     C          -0.047433           
         C21       1.0000    0.08240   0.45120   0.40090   Biso      1.000     C          -0.111672           
         C22       1.0000    0.03960   0.53500   0.93420   Biso      1.000     C          -0.101819           
         C23       1.0000    0.57290   0.57340   0.81100   Biso      1.000     C          -0.103161           
         C24       1.0000    0.44280   0.43760   0.77860   Biso      1.000     C          -0.101964           
         C25       1.0000    0.96100   0.22380   0.01750   Biso      1.000     C          0.675069  
         C26       1.0000    0.61300   0.63380   0.49210   Biso      1.000     C          -0.022147           
         C27       1.0000    0.94890   0.20720   0.57580   Biso      1.000     C          0.687961  
         C28       1.0000    0.98200   0.77740   0.71050   Biso      1.000     C          0.682401  
         C29       1.0000    0.49540   0.53500   0.43420   Biso      1.000     C          -0.101848           
         C30       1.0000    0.95020   0.35200   0.61150   Biso      1.000     C          -0.022946           
         C31       1.0000    0.61790   0.59780   0.55800   Biso      1.000     C          -0.107684           
         C32       1.0000    0.91760   0.54880   0.59910   Biso      1.000     C          -0.111677           
         C33       1.0000    0.96780   0.62560   0.67620   Biso      1.000     C          -0.047429           
         C34       1.0000    0.90910   0.41280   0.56820   Biso      1.000     C          -0.095087           
         C35       1.0000    0.73720   0.77620   0.48250   Biso      1.000     C          0.675081  
         C36       1.0000    0.00520   0.56240   0.72140   Biso      1.000     C          -0.101968           
         C37       1.0000    0.99950   0.42660   0.68900   Biso      1.000     C          -0.103173           
         C38       1.0000    0.97920   0.36620   0.00790   Biso      1.000     C          -0.022189           
         C39       1.0000    0.74170   0.79280   0.92420   Biso      1.000     C          0.688022  
         C40       1.0000    0.20460   0.22260   0.78950   Biso      1.000     C          0.682384  
         C41       1.0000    0.96040   0.46500   0.06580   Biso      1.000     C          -0.101819           
         C42       1.0000    0.59820   0.64800   0.88850   Biso      1.000     C          -0.022958           
         C43       1.0000    0.02010   0.40220   0.94200   Biso      1.000     C          -0.107675           
         C44       1.0000    0.36880   0.45120   0.90090   Biso      1.000     C          -0.111669           
         C45       1.0000    0.34220   0.37440   0.82380   Biso      1.000     C          -0.047436           
         C46       1.0000    0.49630   0.58720   0.93180   Biso      1.000     C          -0.095079           
         C47       1.0000    0.38210   0.40220   0.44200   Biso      1.000     C          -0.107683           
         C48       1.0000    0.04980   0.64800   0.38850   Biso      1.000     C          -0.022928           
         Er1       1.0000    0.07696   0.00278   0.89720   Biso      1.000     Er          2.133113  
         Er2       1.0000    0.92304   0.99722   0.10281   Biso      1.000     Er          2.133233  
         Er3       1.0000    0.07418   0.99722   0.60281   Biso      1.000     Er          2.133215  
         Er4       1.0000    0.92582   0.00278   0.39720   Biso      1.000     Er          2.133101  
         H1        1.0000    0.49230   0.55800   0.38960   Biso      1.000     H          0.117133  
         H2        1.0000    0.35750   0.38560   0.21890   Biso      1.000     H          0.125017  
         H3        1.0000    0.57660   0.61080   0.27360   Biso      1.000     H          0.121675  
         H4        1.0000    0.48680   0.36120   0.01660   Biso      1.000     H          0.114625  
         H5        1.0000    0.69950   0.58940   0.06860   Biso      1.000     H          0.111299  
         H6        1.0000    0.96580   0.66300   0.09700   Biso      1.000     H          0.123757  
         H7        1.0000    0.97190   0.61440   0.28110   Biso      1.000     H          0.125019  
         H8        1.0000    0.96580   0.38920   0.22640   Biso      1.000     H          0.121674  
         H9        1.0000    0.12560   0.63880   0.48340   Biso      1.000     H          0.114625  
         H10       1.0000    0.11010   0.41060   0.43140   Biso      1.000     H          0.111306  
         H11       1.0000    0.06570   0.55800   0.88960   Biso      1.000     H          0.117131  
         H12       1.0000    0.50770   0.44200   0.61040   Biso      1.000     H          0.117133  
         H13       1.0000    0.69720   0.66300   0.59700   Biso      1.000     H          0.123751  
         H14       1.0000    0.30280   0.33700   0.40300   Biso      1.000     H          0.123752  
         H15       1.0000    0.87440   0.36120   0.51660   Biso      1.000     H          0.114624  
         H16       1.0000    0.03420   0.61080   0.77360   Biso      1.000     H          0.121675  
         H17       1.0000    0.02810   0.38560   0.71890   Biso      1.000     H          0.125019  
         H18       1.0000    0.93430   0.44200   0.11040   Biso      1.000     H          0.117131  
         H19       1.0000    0.88990   0.58940   0.56860   Biso      1.000     H          0.111307  
         H20       1.0000    0.30050   0.41060   0.93140   Biso      1.000     H          0.111299  
         H21       1.0000    0.51320   0.63880   0.98340   Biso      1.000     H          0.114624  
         H22       1.0000    0.42340   0.38920   0.72640   Biso      1.000     H          0.121674  
         H23       1.0000    0.64250   0.61440   0.78110   Biso      1.000     H          0.125017  
         H24       1.0000    0.03420   0.33700   0.90300   Biso      1.000     H          0.123757  
         O1        1.0000    0.75540   0.85400   0.99400   Biso      1.000     O          -0.72346  
         O2        1.0000    0.02090   0.83700   0.78070   Biso      1.000     O          -0.688153           
         O3        1.0000    0.84870   0.85060   0.53050   Biso      1.000     O          -0.719264           
         O4        1.0000    0.72210   0.81060   0.42500   Biso      1.000     O          -0.684863           
         O5        1.0000    0.90140   0.14600   0.50600   Biso      1.000     O          -0.723369           
         O6        1.0000    0.12280   0.16740   0.83390   Biso      1.000     O          -0.706329           
         O7        1.0000    0.83300   0.84060   0.88260   Biso      1.000     O          -0.656148           
         O8        1.0000    0.18390   0.16300   0.71930   Biso      1.000     O          -0.688194           
         O9        1.0000    0.99810   0.14940   0.96950   Biso      1.000     O          -0.719233           
         O10       1.0000    0.91150   0.18940   0.07500   Biso      1.000     O          -0.684843           
         O11       1.0000    0.04460   0.16740   0.33390   Biso      1.000     O          -0.70635  
         O12       1.0000    0.99240   0.15940   0.61740   Biso      1.000     O          -0.656143           
         O13       1.0000    0.97910   0.16300   0.21930   Biso      1.000     O          -0.688209           
         O14       1.0000    0.15130   0.14940   0.46950   Biso      1.000     O          -0.719227           
         O15       1.0000    0.27790   0.18940   0.57500   Biso      1.000     O          -0.684847           
         O16       1.0000    0.09860   0.85400   0.49400   Biso      1.000     O          -0.72344  
         O17       1.0000    0.87720   0.83260   0.16610   Biso      1.000     O          -0.706328           
         O18       1.0000    0.16700   0.15940   0.11740   Biso      1.000     O          -0.656167           
         O19       1.0000    0.81610   0.83700   0.28070   Biso      1.000     O          -0.688139           
         O20       1.0000    0.00190   0.85060   0.03050   Biso      1.000     O          -0.71928  
         O21       1.0000    0.08850   0.81060   0.92500   Biso      1.000     O          -0.684859           
         O22       1.0000    0.24460   0.14600   0.00600   Biso      1.000     O          -0.723387           
         O23       1.0000    0.00760   0.84060   0.38260   Biso      1.000     O          -0.656119           
         O24       1.0000    0.95540   0.83260   0.66610   Biso      1.000     O          -0.706348 