
##########################################################################
#               Crystallographic Information Format file
#               Produced by PyCifRW module
#
#  This is a CIF file.  CIF has been adopted by the International
#  Union of Crystallography as the standard for data archiving and
#  transmission.
#
#  For information on this file format, follow the CIF links at
#  http://www.iucr.org
##########################################################################

data_image0

_cell_length_a                          13.302
_cell_length_b                          13.352
_cell_length_c                          19.894
_cell_angle_alpha                       95.63
_cell_angle_beta                        104.8
_cell_angle_gamma                       117.75
_symmetry_space_group_name_H-M          'P 1'
_symmetry_int_tables_number             1
loop_
  _symmetry_equiv_pos_as_xyz
         'x, y, z' 
loop_
  _atom_site_label
  _atom_site_occupancy
  _atom_site_fract_x
  _atom_site_fract_y
  _atom_site_fract_z
  _atom_site_thermal_displace_type
  _atom_site_B_iso_or_equiv
  _atom_site_type_symbol
  _atom_site_charge
         C1        1.0000    0.28890   0.67170   0.38310   Biso      1.000     C          -0.436737           
         C2        1.0000    0.19200   0.98470   0.59880   Biso      1.000     C          -0.428647           
         C3        1.0000    0.53390   0.34280   0.61910   Biso      1.000     C          -0.134255           
         C4        1.0000    0.86310   0.68860   0.87840   Biso      1.000     C          -0.433733           
         C5        1.0000    0.13690   0.31140   0.12160   Biso      1.000     C          -0.434833           
         C6        1.0000    0.80800   0.01530   0.40120   Biso      1.000     C          -0.428373           
         C7        1.0000    0.46610   0.65720   0.38090   Biso      1.000     C          -0.134357           
         C8        1.0000    0.71110   0.32830   0.61690   Biso      1.000     C          -0.436661           
         C9        1.0000    0.92690   0.89090   0.24620   Biso      1.000     C          -0.435145           
         C10       1.0000    0.52350   0.43370   0.66480   Biso      1.000     C          -0.152424           
         C11       1.0000    0.55690   0.02410   0.24670   Biso      1.000     C          -0.432648           
         C12       1.0000    0.40060   0.76410   0.30420   Biso      1.000     C          -0.162707           
         C13       1.0000    0.87780   0.40890   0.85860   Biso      1.000     C          -0.417977           
         C14       1.0000    0.29850   0.74460   0.23960   Biso      1.000     C          -0.126796           
         C15       1.0000    0.67480   0.37180   0.85130   Biso      1.000     C          -0.160086           
         C16       1.0000    0.86210   0.07120   0.13810   Biso      1.000     C          -0.147324           
         C17       1.0000    0.07310   0.10910   0.75380   Biso      1.000     C          -0.435306           
         C18       1.0000    0.59940   0.23590   0.69580   Biso      1.000     C          -0.162689           
         C19       1.0000    0.70150   0.25540   0.76040   Biso      1.000     C          -0.12684  
         C20       1.0000    0.68700   0.07940   0.12850   Biso      1.000     C          -0.134187           
         C21       1.0000    0.92820   0.02200   0.16480   Biso      1.000     C          -0.137892           
         C22       1.0000    0.86270   0.19350   0.35760   Biso      1.000     C          -0.260052           
         C23       1.0000    0.99450   0.09910   0.36210   Biso      1.000     C          -0.125033           
         C24       1.0000    0.69100   0.14500   0.18770   Biso      1.000     C          -0.111071           
         C25       1.0000    0.02080   0.10050   0.29840   Biso      1.000     C          -0.139512           
         C26       1.0000    0.66280   0.88760   0.09200   Biso      1.000     C          -0.431956           
         C27       1.0000    0.68940   0.59690   0.63810   Biso      1.000     C          -0.440004           
         C28       1.0000    0.32520   0.62820   0.14870   Biso      1.000     C          -0.160089           
         C29       1.0000    0.63990   0.63120   0.74550   Biso      1.000     C          -0.133039           
         C30       1.0000    0.12220   0.59110   0.14140   Biso      1.000     C          -0.417778           
         C31       1.0000    0.72080   0.49600   0.89270   Biso      1.000     C          -0.133599           
         C32       1.0000    0.44310   0.97590   0.75330   Biso      1.000     C          -0.432761           
         C33       1.0000    0.64110   0.59470   0.81610   Biso      1.000     C          -0.143104           
         C34       1.0000    0.47650   0.56630   0.33520   Biso      1.000     C          -0.152468           
         C35       1.0000    0.35890   0.40530   0.18390   Biso      1.000     C          -0.143033           
         C36       1.0000    0.27920   0.50400   0.10730   Biso      1.000     C          -0.133936           
         C37       1.0000    0.75890   0.18650   0.32460   Biso      1.000     C          0.203411  
         C38       1.0000    0.07180   0.97800   0.83520   Biso      1.000     C          -0.137922           
         C39       1.0000    0.13790   0.92880   0.86190   Biso      1.000     C          -0.147406           
         C40       1.0000    0.00550   0.90090   0.63790   Biso      1.000     C          -0.125017           
         C41       1.0000    0.36010   0.36880   0.25450   Biso      1.000     C          -0.132885           
         C42       1.0000    0.24110   0.81350   0.67540   Biso      1.000     C          0.20314   
         C43       1.0000    0.30900   0.85500   0.81230   Biso      1.000     C          -0.111349           
         C44       1.0000    0.31300   0.92060   0.87150   Biso      1.000     C          -0.134616           
         C45       1.0000    0.97920   0.89950   0.70160   Biso      1.000     C          -0.139536           
         C46       1.0000    0.31060   0.40310   0.36190   Biso      1.000     C          -0.439794           
         C47       1.0000    0.13730   0.80650   0.64240   Biso      1.000     C          -0.259886           
         C48       1.0000    0.33720   0.11240   0.90800   Biso      1.000     C          -0.430131           
         Cl1       1.0000    0.35490   0.19584   0.75435   Biso      1.000     Cl          -0.574689           
         Cl2       1.0000    0.06074   0.40293   0.25708   Biso      1.000     Cl          -0.587225           
         Cl3       1.0000    0.64510   0.80416   0.24565   Biso      1.000     Cl          -0.574727           
         Cl4       1.0000    0.93926   0.59707   0.74292   Biso      1.000     Cl          -0.587109           
         Cu1       1.0000    0.22740   0.99774   0.75259   Biso      1.000     Cu          0.469645  
         Cu2       1.0000    0.25641   0.51654   0.24928   Biso      1.000     Cu          0.496204  
         Cu3       1.0000    0.74359   0.48346   0.75072   Biso      1.000     Cu          0.496225  
         Cu4       1.0000    0.77260   0.00226   0.24741   Biso      1.000     Cu          0.469673  
         Gd1       1.0000    0.66186   0.94605   0.59540   Biso      1.000     Gd          2.218383  
         Gd2       1.0000    0.33814   0.05395   0.40460   Biso      1.000     Gd          2.218415  
         Gd3       1.0000    0.81987   0.03774   0.90470   Biso      1.000     Gd          2.218245  
         Gd4       1.0000    0.18013   0.96226   0.09530   Biso      1.000     Gd          2.217188  
         H1        1.0000    0.48710   0.03510   0.79870   Biso      1.000     H          0.168611  
         H2        1.0000    0.98910   0.92820   0.83300   Biso      1.000     H          0.12568   
         H3        1.0000    0.08070   0.60600   0.17120   Biso      1.000     H          0.179188  
         H4        1.0000    0.72590   0.13200   0.10110   Biso      1.000     H          0.152143  
         H5        1.0000    0.07980   0.50710   0.12180   Biso      1.000     H          0.166683  
         H6        1.0000    0.14350   0.92830   0.91140   Biso      1.000     H          0.14945   
         H7        1.0000    0.39740   0.97190   0.90150   Biso      1.000     H          0.125494  
         H8        1.0000    0.32800   0.67710   0.11540   Biso      1.000     H          0.140213  
         H9        1.0000    0.40650   0.66070   0.18230   Biso      1.000     H          0.104851  
         H10       1.0000    0.27410   0.86800   0.89890   Biso      1.000     H          0.151985  
         H11       1.0000    0.88990   0.23310   0.40780   Biso      1.000     H          0.195671  
         H12       1.0000    0.11010   0.76690   0.59220   Biso      1.000     H          0.195278  
         H13       1.0000    0.44040   0.01670   0.71580   Biso      1.000     H          0.149797  
         H14       1.0000    0.09890   0.84860   0.83410   Biso      1.000     H          0.106931  
         H15       1.0000    0.60260   0.02810   0.09850   Biso      1.000     H          0.125669  
         H16       1.0000    0.20520   0.47720   0.06740   Biso      1.000     H          0.138153  
         H17       1.0000    0.53720   0.55240   0.36420   Biso      1.000     H          0.154191  
         H18       1.0000    0.43360   0.47760   0.19200   Biso      1.000     H          0.127823  
         H19       1.0000    0.35350   0.34550   0.14890   Biso      1.000     H          0.148792  
         H20       1.0000    0.32850   0.80610   0.21520   Biso      1.000     H          0.132636  
         H21       1.0000    0.43230   0.36480   0.27470   Biso      1.000     H          0.149834  
         H22       1.0000    0.23660   0.74820   0.25520   Biso      1.000     H          0.132827  
         H23       1.0000    0.29020   0.29180   0.24560   Biso      1.000     H          0.128547  
         H24       1.0000    0.42890   0.83630   0.33860   Biso      1.000     H          0.133969  
         H25       1.0000    0.46730   0.77180   0.28940   Biso      1.000     H          0.106949  
         H26       1.0000    0.30740   0.46220   0.39230   Biso      1.000     H          0.166787  
         H27       1.0000    0.22790   0.33950   0.33770   Biso      1.000     H          0.153368  
         H28       1.0000    0.21580   0.66490   0.35160   Biso      1.000     H          0.180388  
         H29       1.0000    0.26450   0.60410   0.40300   Biso      1.000     H          0.172577  
         H30       1.0000    0.41070   0.14800   0.89630   Biso      1.000     H          0.162492  
         H31       1.0000    0.53980   0.73270   0.39440   Biso      1.000     H          0.143888  
         H32       1.0000    0.45470   0.63480   0.42440   Biso      1.000     H          0.126953  
         H33       1.0000    0.29920   0.15840   0.89710   Biso      1.000     H          0.164662  
         H34       1.0000    0.11390   0.27680   0.15980   Biso      1.000     H          0.142402  
         H35       1.0000    0.97100   0.82990   0.71650   Biso      1.000     H          0.096666  
         H36       1.0000    0.07790   0.33240   0.09960   Biso      1.000     H          0.16624   
         H37       1.0000    0.90330   0.89780   0.69370   Biso      1.000     H          0.138408  
         H38       1.0000    0.27630   0.00610   0.61450   Biso      1.000     H          0.157255  
         H39       1.0000    0.19070   0.05660   0.60890   Biso      1.000     H          0.175951  
         H40       1.0000    0.23320   0.78100   0.79630   Biso      1.000     H          0.114158  
         H41       1.0000    0.37350   0.83800   0.82710   Biso      1.000     H          0.151051  
         H42       1.0000    0.14260   0.16900   0.79400   Biso      1.000     H          0.175745  
         H43       1.0000    0.08680   0.12980   0.71030   Biso      1.000     H          0.174643  
         H44       1.0000    0.94220   0.82960   0.60180   Biso      1.000     H          0.142001  
         H45       1.0000    0.00440   0.96610   0.62080   Biso      1.000     H          0.144878  
         H46       1.0000    0.33880   0.50370   0.08780   Biso      1.000     H          0.153876  
         H47       1.0000    0.10410   0.05300   0.86810   Biso      1.000     H          0.137857  
         H48       1.0000    0.50150   0.59510   0.29590   Biso      1.000     H          0.113441  
         H49       1.0000    0.92150   0.24310   0.33750   Biso      1.000     H          0.195754  
         H50       1.0000    0.85650   0.07170   0.08860   Biso      1.000     H          0.148949  
         H51       1.0000    0.79480   0.52280   0.93260   Biso      1.000     H          0.138509  
         H52       1.0000    0.66120   0.49630   0.91220   Biso      1.000     H          0.154097  
         H53       1.0000    0.56640   0.52240   0.80800   Biso      1.000     H          0.127739  
         H54       1.0000    0.64650   0.65450   0.85110   Biso      1.000     H          0.148103  
         H55       1.0000    0.67150   0.19390   0.78480   Biso      1.000     H          0.132702  
         H56       1.0000    0.76340   0.25180   0.74480   Biso      1.000     H          0.132757  
         H57       1.0000    0.57110   0.16370   0.66140   Biso      1.000     H          0.134047  
         H58       1.0000    0.90110   0.15140   0.16590   Biso      1.000     H          0.10722   
         H59       1.0000    0.78420   0.33510   0.64840   Biso      1.000     H          0.180368  
         H60       1.0000    0.73550   0.39590   0.59700   Biso      1.000     H          0.172561  
         H61       1.0000    0.46020   0.26730   0.60560   Biso      1.000     H          0.1441    
         H62       1.0000    0.54530   0.36520   0.57560   Biso      1.000     H          0.127116  
         H63       1.0000    0.56770   0.63520   0.72530   Biso      1.000     H          0.149703  
         H64       1.0000    0.88610   0.72320   0.84020   Biso      1.000     H          0.142285  
         H65       1.0000    0.72370   0.99390   0.38550   Biso      1.000     H          0.157359  
         H66       1.0000    0.80930   0.94340   0.39110   Biso      1.000     H          0.176075  
         H67       1.0000    0.85740   0.83100   0.20600   Biso      1.000     H          0.175736  
         H68       1.0000    0.91320   0.87020   0.28970   Biso      1.000     H          0.174875  
         H69       1.0000    0.49850   0.40490   0.70410   Biso      1.000     H          0.113444  
         H70       1.0000    0.46280   0.44760   0.63580   Biso      1.000     H          0.154241  
         H71       1.0000    0.55960   0.98330   0.28420   Biso      1.000     H          0.149806  
         H72       1.0000    0.51290   0.96490   0.20130   Biso      1.000     H          0.168722  
         H73       1.0000    0.91930   0.39400   0.82880   Biso      1.000     H          0.179218  
         H74       1.0000    0.92020   0.49290   0.87820   Biso      1.000     H          0.166815  
         H75       1.0000    0.67200   0.32290   0.88460   Biso      1.000     H          0.140513  
         H76       1.0000    0.59350   0.33930   0.81770   Biso      1.000     H          0.104966  
         H77       1.0000    0.92210   0.66760   0.90040   Biso      1.000     H          0.166339  
         H78       1.0000    0.70980   0.70820   0.75440   Biso      1.000     H          0.128549  
         H79       1.0000    0.53270   0.22820   0.71060   Biso      1.000     H          0.107011  
         H80       1.0000    0.76680   0.21900   0.20370   Biso      1.000     H          0.114353  
         H81       1.0000    0.01090   0.07180   0.16700   Biso      1.000     H          0.125853  
         H82       1.0000    0.89590   0.94700   0.13190   Biso      1.000     H          0.137747  
         H83       1.0000    0.99560   0.03390   0.37920   Biso      1.000     H          0.144964  
         H84       1.0000    0.05780   0.17040   0.39820   Biso      1.000     H          0.142368  
         H85       1.0000    0.62650   0.16200   0.17290   Biso      1.000     H          0.152278  
         H86       1.0000    0.09670   0.10220   0.30630   Biso      1.000     H          0.138709  
         H87       1.0000    0.02900   0.17010   0.28350   Biso      1.000     H          0.096727  
         H88       1.0000    0.70080   0.84160   0.10290   Biso      1.000     H          0.165402  
         H89       1.0000    0.58930   0.85200   0.10370   Biso      1.000     H          0.162727  
         H90       1.0000    0.77210   0.66050   0.66230   Biso      1.000     H          0.153469  
         H91       1.0000    0.69260   0.53780   0.60770   Biso      1.000     H          0.166909  
         H92       1.0000    0.07850   0.75690   0.66250   Biso      1.000     H          0.195616  
         N1        1.0000    0.35760   0.45500   0.30590   Biso      1.000     N          0.045565  
         N2        1.0000    0.68080   0.09510   0.24860   Biso      1.000     N          -0.009225           
         N3        1.0000    0.75540   0.37230   0.81160   Biso      1.000     N          0.047317  
         N4        1.0000    0.74470   0.57810   0.84410   Biso      1.000     N          0.044008  
         N5        1.0000    0.63920   0.33440   0.66140   Biso      1.000     N          0.041335  
         N6        1.0000    0.13520   0.91190   0.64530   Biso      1.000     N          0.027125  
         N7        1.0000    0.64240   0.54500   0.69410   Biso      1.000     N          0.045415  
         N8        1.0000    0.92900   0.00210   0.24540   Biso      1.000     N          0.022856  
         N9        1.0000    0.25590   0.99500   0.85800   Biso      1.000     N          0.04073   
         N10       1.0000    0.74410   0.00500   0.14200   Biso      1.000     N          0.038929  
         N11       1.0000    0.86480   0.08810   0.35470   Biso      1.000     N          0.028294  
         N12       1.0000    0.07100   0.99790   0.75460   Biso      1.000     N          0.022657  
         N13       1.0000    0.31920   0.90490   0.75140   Biso      1.000     N          -0.010045           
         N14       1.0000    0.36080   0.66560   0.33860   Biso      1.000     N          0.041206  
         N15       1.0000    0.25530   0.42190   0.15590   Biso      1.000     N          0.043747  
         N16       1.0000    0.24460   0.62770   0.18840   Biso      1.000     N          0.047309  
         O1        1.0000    0.08360   0.91960   0.17640   Biso      1.000     O          -0.841856           
         O2        1.0000    0.00830   0.86690   0.99580   Biso      1.000     O          -0.839205           
         O3        1.0000    0.51420   0.17070   0.50050   Biso      1.000     O          -0.830142           
         O4        1.0000    0.88680   0.19400   0.51850   Biso      1.000     O          -0.531216           
         O5        1.0000    0.15900   0.95140   0.31280   Biso      1.000     O          -0.847978           
         O6        1.0000    0.66130   0.77910   0.61330   Biso      1.000     O          -0.791844           
         O7        1.0000    0.49780   0.86780   0.97200   Biso      1.000     O          -0.553805           
         O8        1.0000    0.86370   0.39130   0.99260   Biso      1.000     O          -0.550366           
         O9        1.0000    0.47540   0.57460   0.55880   Biso      1.000     O          -0.54203  
         O10       1.0000    0.79220   0.74060   0.98800   Biso      1.000     O          -0.548567           
         O11       1.0000    0.99370   0.08410   0.52500   Biso      1.000     O          -0.520914           
         O12       1.0000    0.64980   0.64430   0.51250   Biso      1.000     O          -0.44705  
         O13       1.0000    0.71940   0.23430   0.49490   Biso      1.000     O          -0.481385           
         O14       1.0000    0.36150   0.04349   0.18660   Biso      1.000     O          -0.830553           
         O15       1.0000    0.01270   0.74900   0.23010   Biso      1.000     O          -0.536648           
         O16       1.0000    0.77850   0.98140   0.52400   Biso      1.000     O          -0.832467           
         O17       1.0000    0.43160   0.06070   0.32156   Biso      1.000     O          -0.837943           
         O18       1.0000    0.64480   0.10100   0.57420   Biso      1.000     O          -0.863923           
         O19       1.0000    0.60130   0.75390   0.96370   Biso      1.000     O          -0.496501           
         O20       1.0000    0.54326   0.22420   0.26940   Biso      1.000     O          -0.557137           
         O21       1.0000    0.71080   0.97480   0.97890   Biso      1.000     O          -0.824363           
         O22       1.0000    0.82340   0.21030   0.90840   Biso      1.000     O          -0.800152           
         O23       1.0000    0.83830   0.87510   0.90570   Biso      1.000     O          -0.860037           
         O24       1.0000    0.03210   0.38580   0.95860   Biso      1.000     O          -0.427449           
         O25       1.0000    0.39870   0.24610   0.03630   Biso      1.000     O          -0.52034  
         O26       1.0000    0.35520   0.89900   0.42580   Biso      1.000     O          -0.863775           
         O27       1.0000    0.11320   0.80600   0.48150   Biso      1.000     O          -0.531101           
         O28       1.0000    0.96790   0.61420   0.04140   Biso      1.000     O          -0.430723           
         O29       1.0000    0.17660   0.78970   0.09160   Biso      1.000     O          -0.80032  
         O30       1.0000    0.91640   0.08040   0.82360   Biso      1.000     O          -0.843909           
         O31       1.0000    0.16170   0.12490   0.09430   Biso      1.000     O          -0.85992  
         O32       1.0000    0.56840   0.93930   0.67844   Biso      1.000     O          -0.838415           
         O33       1.0000    0.33870   0.22090   0.38670   Biso      1.000     O          -0.793445           
         O34       1.0000    0.84100   0.04860   0.68720   Biso      1.000     O          -0.847315           
         O35       1.0000    0.48580   0.82930   0.49950   Biso      1.000     O          -0.830445           
         O36       1.0000    0.50220   0.13220   0.02800   Biso      1.000     O          -0.576754           
         O37       1.0000    0.13630   0.60870   0.00740   Biso      1.000     O          -0.553899           
         O38       1.0000    0.99170   0.13310   0.00420   Biso      1.000     O          -0.843919           
         O39       1.0000    0.28920   0.02520   0.02110   Biso      1.000     O          -0.832718           
         O40       1.0000    0.22150   0.01860   0.47600   Biso      1.000     O          -0.832234           
         O41       1.0000    0.98730   0.25100   0.76990   Biso      1.000     O          -0.53744  
         O42       1.0000    0.63850   0.95651   0.81340   Biso      1.000     O          -0.832993           
         O43       1.0000    0.28060   0.76570   0.50510   Biso      1.000     O          -0.481204           
         O44       1.0000    0.35020   0.35570   0.48750   Biso      1.000     O          -0.453205           
         O45       1.0000    0.00630   0.91590   0.47500   Biso      1.000     O          -0.52068  
         O46       1.0000    0.20780   0.25940   0.01200   Biso      1.000     O          -0.533332           
         O47       1.0000    0.45674   0.77580   0.73060   Biso      1.000     O          -0.559285           
         O48       1.0000    0.52460   0.42540   0.44120   Biso      1.000     O          -0.545471           
         P1        1.0000    0.13060   0.92670   0.50121   Biso      1.000     P          1.266756  
         P2        1.0000    0.86940   0.07330   0.49879   Biso      1.000     P          1.267056  
         P3        1.0000    0.63815   0.19729   0.54283   Biso      1.000     P          1.356272  
         P4        1.0000    0.87873   0.80311   0.94609   Biso      1.000     P          1.349368  
         P5        1.0000    0.46318   0.08922   0.25632   Biso      1.000     P          1.355226  
         P6        1.0000    0.05787   0.88314   0.24193   Biso      1.000     P          1.357857  
         P7        1.0000    0.61770   0.87050   0.99508   Biso      1.000     P          1.262301  
         P8        1.0000    0.61040   0.65315   0.57958   Biso      1.000     P          1.235347  
         P9        1.0000    0.53682   0.91078   0.74368   Biso      1.000     P          1.355752  
         P10       1.0000    0.94213   0.11686   0.75807   Biso      1.000     P          1.357877  
         P11       1.0000    0.38230   0.12950   0.00492   Biso      1.000     P          1.269648  
         P12       1.0000    0.36185   0.80271   0.45717   Biso      1.000     P          1.356208  
         P13       1.0000    0.38960   0.34685   0.42042   Biso      1.000     P          1.236822  
         P14       1.0000    0.10580   0.65824   0.06610   Biso      1.000     P          1.224386  
         P15       1.0000    0.89420   0.34176   0.93390   Biso      1.000     P          1.22374   
         P16       1.0000    0.12127   0.19689   0.05391   Biso      1.000     P          1.349486 