
##########################################################################
#               Crystallographic Information Format file
#               Produced by PyCifRW module
#
#  This is a CIF file.  CIF has been adopted by the International
#  Union of Crystallography as the standard for data archiving and
#  transmission.
#
#  For information on this file format, follow the CIF links at
#  http://www.iucr.org
##########################################################################

data_image0

_cell_length_a                          9.4505
_cell_length_b                          9.4505
_cell_length_c                          16.4367
_cell_angle_alpha                       88.5107
_cell_angle_beta                        88.5107
_cell_angle_gamma                       83.7963
_symmetry_space_group_name_H-M          'P 1'
_symmetry_int_tables_number             1
loop_
  _symmetry_equiv_pos_as_xyz
         'x, y, z' 
loop_
  _atom_site_label
  _atom_site_occupancy
  _atom_site_fract_x
  _atom_site_fract_y
  _atom_site_fract_z
  _atom_site_thermal_displace_type
  _atom_site_B_iso_or_equiv
  _atom_site_type_symbol
  _atom_site_charge
         C1        1.0000    0.95924   0.68340   0.48927   Biso      1.000     C          -0.071714           
         C2        1.0000    0.57115   0.28171   0.16021   Biso      1.000     C          -0.023791999999999997         
         C3        1.0000    0.53774   0.30552   0.84091   Biso      1.000     C          -0.023955           
         C4        1.0000    0.31660   0.04076   0.01073   Biso      1.000     C          -0.071685           
         C5        1.0000    0.71829   0.42885   0.33979   Biso      1.000     C          -0.024009           
         C6        1.0000    0.69448   0.46226   0.65909   Biso      1.000     C          -0.023987           
         C7        1.0000    0.42885   0.71829   0.83979   Biso      1.000     C          -0.023717           
         C8        1.0000    0.46226   0.69448   0.15909   Biso      1.000     C          -0.024074           
         C9        1.0000    0.68340   0.95924   0.98927   Biso      1.000     C          -0.07169199999999999          
         C10       1.0000    0.28171   0.57115   0.66021   Biso      1.000     C          -0.023677           
         C11       1.0000    0.04076   0.31660   0.51073   Biso      1.000     C          -0.07169299999999999          
         C12       1.0000    0.30552   0.53774   0.34091   Biso      1.000     C          -0.024277           
         Cu1       1.0000    0.13606   0.49229   0.50266   Biso      1.000     Cu          0.504699  
         Cu2       1.0000    0.00000   0.00000   0.50000   Biso      1.000     Cu          0.45471000000000006           
         Cu3       1.0000    0.63618   0.36382   0.25000   Biso      1.000     Cu          0.252703  
         Cu4       1.0000    0.36382   0.63618   0.75000   Biso      1.000     Cu          0.252264  
         Cu5       1.0000    0.60228   0.39772   0.75000   Biso      1.000     Cu          0.260334  
         Cu6       1.0000    0.39772   0.60228   0.25000   Biso      1.000     Cu          0.26077100000000003           
         Cu7       1.0000    0.49229   0.13606   0.00266   Biso      1.000     Cu          0.504654  
         Cu8       1.0000    0.86394   0.50771   0.49734   Biso      1.000     Cu          0.504664  
         Cu9       1.0000    0.50771   0.86394   0.99734   Biso      1.000     Cu          0.504447  
         Cu10      1.0000    0.00000   0.00000   0.00000   Biso      1.000     Cu          0.45491099999999995           
         N1        1.0000    0.19884   0.02604   0.01328   Biso      1.000     N          -0.288833           
         N2        1.0000    0.77161   0.45829   0.39751   Biso      1.000     N          -0.289517           
         N3        1.0000    0.75674   0.48388   0.60036   Biso      1.000     N          -0.290452           
         N4        1.0000    0.97396   0.80116   0.48672   Biso      1.000     N          -0.289191           
         N5        1.0000    0.45829   0.77161   0.89751   Biso      1.000     N          -0.289585           
         N6        1.0000    0.24326   0.51612   0.39964   Biso      1.000     N          -0.289011           
         N7        1.0000    0.80116   0.97396   0.98672   Biso      1.000     N          -0.28925500000000004          
         N8        1.0000    0.22839   0.54171   0.60249   Biso      1.000     N          -0.291166           
         N9        1.0000    0.02604   0.19884   0.51328   Biso      1.000     N          -0.288835           
         N10       1.0000    0.51612   0.24326   0.89964   Biso      1.000     N          -0.289099           
         N11       1.0000    0.48388   0.75674   0.10036   Biso      1.000     N          -0.290073           
         N12       1.0000    0.54171   0.22839   0.10249   Biso      1.000     N          -0.290867 