
##########################################################################
#               Crystallographic Information Format file
#               Produced by PyCifRW module
#
#  This is a CIF file.  CIF has been adopted by the International
#  Union of Crystallography as the standard for data archiving and
#  transmission.
#
#  For information on this file format, follow the CIF links at
#  http://www.iucr.org
##########################################################################

data_image0

_cell_length_a                          7.1991
_cell_length_b                          10.2926
_cell_length_c                          13.3838
_cell_angle_alpha                       90
_cell_angle_beta                        90
_cell_angle_gamma                       98.898
_symmetry_space_group_name_H-M          'P 1'
_symmetry_int_tables_number             1
loop_
  _symmetry_equiv_pos_as_xyz
         'x, y, z' 
loop_
  _atom_site_label
  _atom_site_occupancy
  _atom_site_fract_x
  _atom_site_fract_y
  _atom_site_fract_z
  _atom_site_thermal_displace_type
  _atom_site_B_iso_or_equiv
  _atom_site_type_symbol
  _atom_site_charge
         C1        1.0000    0.45350   0.05480   0.52600   Biso      1.000     C          0.504223  
         C2        1.0000    0.99740   0.27450   0.16290   Biso      1.000     C          0.660893  
         C3        1.0000    0.94540   0.12630   0.15600   Biso      1.000     C          -0.244303           
         C4        1.0000    0.45350   0.55480   0.97400   Biso      1.000     C          0.504223  
         C5        1.0000    0.00260   0.22550   0.66290   Biso      1.000     C          0.660893  
         C6        1.0000    0.54650   0.94520   0.47400   Biso      1.000     C          0.504223  
         C7        1.0000    0.05460   0.37370   0.65600   Biso      1.000     C          -0.244303           
         C8        1.0000    0.00260   0.72550   0.83710   Biso      1.000     C          0.660893  
         C9        1.0000    0.99740   0.77450   0.33710   Biso      1.000     C          0.660893  
         C10       1.0000    0.94540   0.62630   0.34400   Biso      1.000     C          -0.244303           
         C11       1.0000    0.54650   0.44520   0.02600   Biso      1.000     C          0.504223  
         C12       1.0000    0.05460   0.87370   0.84400   Biso      1.000     C          -0.244303           
         H1        1.0000    0.06020   0.58710   0.35190   Biso      1.000     H          0.14687   
         H2        1.0000    0.87350   0.50180   0.24410   Biso      1.000     H          0.4015    
         H3        1.0000    0.59000   0.69280   0.45090   Biso      1.000     H          0.431242  
         H4        1.0000    0.93980   0.91290   0.85190   Biso      1.000     H          0.14687   
         H5        1.0000    0.12650   0.99820   0.74410   Biso      1.000     H          0.4015    
         H6        1.0000    0.93980   0.41290   0.64810   Biso      1.000     H          0.14687   
         H7        1.0000    0.12650   0.49820   0.75590   Biso      1.000     H          0.4015    
         H8        1.0000    0.06020   0.08710   0.14810   Biso      1.000     H          0.14687   
         H9        1.0000    0.87350   0.00180   0.25590   Biso      1.000     H          0.4015    
         H10       1.0000    0.59000   0.19280   0.04910   Biso      1.000     H          0.431242  
         H11       1.0000    0.41000   0.80720   0.95090   Biso      1.000     H          0.431242  
         H12       1.0000    0.41000   0.30720   0.54910   Biso      1.000     H          0.431242  
         La1       1.0000    0.15928   0.28238   0.90594   Biso      1.000     La          1.995108  
         La2       1.0000    0.15928   0.78238   0.59406   Biso      1.000     La          1.995108  
         La3       1.0000    0.84072   0.71762   0.09406   Biso      1.000     La          1.995108  
         La4       1.0000    0.84072   0.21762   0.40594   Biso      1.000     La          1.995108  
         O1        1.0000    0.92130   0.16730   0.58891   Biso      1.000     O          -0.636665           
         O2        1.0000    0.39780   0.87080   0.91600   Biso      1.000     O          -0.665616           
         O3        1.0000    0.13530   0.86850   0.04476   Biso      1.000     O          -0.831633           
         O4        1.0000    0.25690   0.07320   0.94206   Biso      1.000     O          -0.804345           
         O5        1.0000    0.14960   0.92400   0.75522   Biso      1.000     O          -0.561092           
         O6        1.0000    0.92130   0.66730   0.91109   Biso      1.000     O          -0.636665           
         O7        1.0000    0.04030   0.66970   0.75722   Biso      1.000     O          -0.609155           
         O8        1.0000    0.69010   0.47930   0.07647   Biso      1.000     O          -0.576675           
         O9        1.0000    0.60220   0.62920   0.41600   Biso      1.000     O          -0.665616           
         O10       1.0000    0.46740   0.82920   0.49015   Biso      1.000     O          -0.572758           
         O11       1.0000    0.86470   0.63150   0.54476   Biso      1.000     O          -0.831633           
         O12       1.0000    0.74310   0.42680   0.44206   Biso      1.000     O          -0.804345           
         O13       1.0000    0.85040   0.57600   0.25522   Biso      1.000     O          -0.561092           
         O14       1.0000    0.07870   0.83270   0.41109   Biso      1.000     O          -0.636665           
         O15       1.0000    0.95970   0.83030   0.25722   Biso      1.000     O          -0.609155           
         O16       1.0000    0.46740   0.32920   0.00985   Biso      1.000     O          -0.572758           
         O17       1.0000    0.69010   0.97930   0.42353   Biso      1.000     O          -0.576675           
         O18       1.0000    0.53260   0.17080   0.50985   Biso      1.000     O          -0.572758           
         O19       1.0000    0.07870   0.33270   0.08891   Biso      1.000     O          -0.636665           
         O20       1.0000    0.14960   0.42400   0.74478   Biso      1.000     O          -0.561092           
         O21       1.0000    0.25690   0.57320   0.55794   Biso      1.000     O          -0.804345           
         O22       1.0000    0.13530   0.36850   0.45524   Biso      1.000     O          -0.831633           
         O23       1.0000    0.39780   0.37080   0.58400   Biso      1.000     O          -0.665616           
         O24       1.0000    0.53260   0.67080   0.99015   Biso      1.000     O          -0.572758           
         O25       1.0000    0.30990   0.52070   0.92353   Biso      1.000     O          -0.576675           
         O26       1.0000    0.95970   0.33030   0.24278   Biso      1.000     O          -0.609155           
         O27       1.0000    0.04030   0.16970   0.74278   Biso      1.000     O          -0.609155           
         O28       1.0000    0.85040   0.07600   0.24478   Biso      1.000     O          -0.561092           
         O29       1.0000    0.74310   0.92680   0.05794   Biso      1.000     O          -0.804345           
         O30       1.0000    0.86470   0.13150   0.95524   Biso      1.000     O          -0.831633           
         O31       1.0000    0.60220   0.12920   0.08400   Biso      1.000     O          -0.665616           
         O32       1.0000    0.30990   0.02070   0.57647   Biso      1.000     O          -0.576675           
         P1        1.0000    0.21498   0.42640   0.55193   Biso      1.000     P          1.362406  
         P2        1.0000    0.78502   0.57360   0.44807   Biso      1.000     P          1.362406  
         P3        1.0000    0.78502   0.07360   0.05193   Biso      1.000     P          1.362406  
         P4        1.0000    0.21498   0.92640   0.94807   Biso      1.000     P          1.362406 