
##########################################################################
#               Crystallographic Information Format file
#               Produced by PyCifRW module
#
#  This is a CIF file.  CIF has been adopted by the International
#  Union of Crystallography as the standard for data archiving and
#  transmission.
#
#  For information on this file format, follow the CIF links at
#  http://www.iucr.org
##########################################################################

data_image0

_cell_length_a                          7.2351
_cell_length_b                          10.1999
_cell_length_c                          13.055
_cell_angle_alpha                       90
_cell_angle_beta                        90
_cell_angle_gamma                       100.427
_symmetry_space_group_name_H-M          'P 1'
_symmetry_int_tables_number             1
loop_
  _symmetry_equiv_pos_as_xyz
         'x, y, z' 
loop_
  _atom_site_label
  _atom_site_occupancy
  _atom_site_fract_x
  _atom_site_fract_y
  _atom_site_fract_z
  _atom_site_thermal_displace_type
  _atom_site_B_iso_or_equiv
  _atom_site_type_symbol
  _atom_site_charge
         C1        1.0000    0.45320   0.05490   0.52420   Biso      1.000     C          0.5186390000000001  
         C2        1.0000    0.00000   0.77440   0.33620   Biso      1.000     C          0.680668  
         C3        1.0000    0.94370   0.62430   0.34300   Biso      1.000     C          -0.245535           
         C4        1.0000    0.54680   0.44510   0.02420   Biso      1.000     C          0.5186390000000001  
         C5        1.0000    0.00000   0.72560   0.83620   Biso      1.000     C          0.680668  
         C6        1.0000    0.05630   0.87570   0.84300   Biso      1.000     C          -0.245535           
         C7        1.0000    0.54680   0.94510   0.47580   Biso      1.000     C          0.51864   
         C8        1.0000    0.00000   0.22560   0.66380   Biso      1.000     C          0.680668  
         C9        1.0000    0.05630   0.37570   0.65700   Biso      1.000     C          -0.245535           
         C10       1.0000    0.45320   0.55490   0.97580   Biso      1.000     C          0.51864   
         C11       1.0000    0.94370   0.12430   0.15700   Biso      1.000     C          -0.245535           
         C12       1.0000    0.00000   0.27440   0.16380   Biso      1.000     C          0.680668  
         H1        1.0000    0.13410   0.50070   0.76010   Biso      1.000     H          0.40928600000000004           
         H2        1.0000    0.94270   0.41490   0.65070   Biso      1.000     H          0.14973699999999998           
         H3        1.0000    0.40700   0.81390   0.95590   Biso      1.000     H          0.436774  
         H4        1.0000    0.13410   0.00070   0.73990   Biso      1.000     H          0.40928600000000004           
         H5        1.0000    0.94270   0.91490   0.84930   Biso      1.000     H          0.149738  
         H6        1.0000    0.59300   0.68610   0.45590   Biso      1.000     H          0.436774  
         H7        1.0000    0.86590   0.49930   0.23990   Biso      1.000     H          0.40928600000000004           
         H8        1.0000    0.05730   0.58510   0.34930   Biso      1.000     H          0.14973699999999998           
         H9        1.0000    0.05730   0.08510   0.15070   Biso      1.000     H          0.14973699999999998           
         H10       1.0000    0.86590   0.99930   0.26010   Biso      1.000     H          0.40928600000000004           
         H11       1.0000    0.59300   0.18610   0.04410   Biso      1.000     H          0.436774  
         H12       1.0000    0.40700   0.31390   0.54410   Biso      1.000     H          0.436774  
         O1        1.0000    0.25350   0.07950   0.94630   Biso      1.000     O          -0.856714           
         O2        1.0000    0.12830   0.86820   0.04840   Biso      1.000     O          -0.876114           
         O3        1.0000    0.03900   0.16940   0.74500   Biso      1.000     O          -0.64151  
         O4        1.0000    0.46600   0.82730   0.49050   Biso      1.000     O          -0.59802  
         O5        1.0000    0.69690   0.98170   0.42810   Biso      1.000     O          -0.619686           
         O6        1.0000    0.15540   0.92610   0.75250   Biso      1.000     O          -0.607349           
         O7        1.0000    0.39630   0.87820   0.92010   Biso      1.000     O          -0.6605   
         O8        1.0000    0.91870   0.66640   0.91260   Biso      1.000     O          -0.669613           
         O9        1.0000    0.74650   0.42050   0.44630   Biso      1.000     O          -0.856714           
         O10       1.0000    0.69690   0.48170   0.07190   Biso      1.000     O          -0.619686           
         O11       1.0000    0.96100   0.83060   0.25500   Biso      1.000     O          -0.64151  
         O12       1.0000    0.08130   0.83360   0.41260   Biso      1.000     O          -0.669613           
         O13       1.0000    0.84460   0.57390   0.25250   Biso      1.000     O          -0.607349           
         O14       1.0000    0.87170   0.63180   0.54840   Biso      1.000     O          -0.876114           
         O15       1.0000    0.60370   0.62180   0.42010   Biso      1.000     O          -0.660501           
         O16       1.0000    0.46600   0.32730   0.00950   Biso      1.000     O          -0.598019           
         O17       1.0000    0.91870   0.16640   0.58740   Biso      1.000     O          -0.669613           
         O18       1.0000    0.03900   0.66940   0.75500   Biso      1.000     O          -0.641509           
         O19       1.0000    0.15540   0.42610   0.74750   Biso      1.000     O          -0.607349           
         O20       1.0000    0.53400   0.17270   0.50950   Biso      1.000     O          -0.59802  
         O21       1.0000    0.12830   0.36820   0.45160   Biso      1.000     O          -0.876114           
         O22       1.0000    0.30310   0.01830   0.57190   Biso      1.000     O          -0.619686           
         O23       1.0000    0.25350   0.57950   0.55370   Biso      1.000     O          -0.856714           
         O24       1.0000    0.87170   0.13180   0.95160   Biso      1.000     O          -0.876114           
         O25       1.0000    0.74650   0.92050   0.05370   Biso      1.000     O          -0.856714           
         O26       1.0000    0.84460   0.07390   0.24750   Biso      1.000     O          -0.607349           
         O27       1.0000    0.60370   0.12180   0.07990   Biso      1.000     O          -0.660501           
         O28       1.0000    0.96100   0.33060   0.24500   Biso      1.000     O          -0.64151  
         O29       1.0000    0.30310   0.51830   0.92810   Biso      1.000     O          -0.619686           
         O30       1.0000    0.53400   0.67270   0.99050   Biso      1.000     O          -0.59802  
         O31       1.0000    0.39630   0.37820   0.57990   Biso      1.000     O          -0.660501           
         O32       1.0000    0.08130   0.33360   0.08740   Biso      1.000     O          -0.669613           
         P1        1.0000    0.78841   0.56941   0.45090   Biso      1.000     P          1.3969129999999998  
         P2        1.0000    0.21159   0.93059   0.95090   Biso      1.000     P          1.3969129999999998  
         P3        1.0000    0.21159   0.43059   0.54910   Biso      1.000     P          1.3969129999999998  
         P4        1.0000    0.78841   0.06941   0.04910   Biso      1.000     P          1.3969129999999998  
         Sm1       1.0000    0.16364   0.78216   0.59405   Biso      1.000     Sm          2.1830220000000002  
         Sm2       1.0000    0.83636   0.71784   0.09405   Biso      1.000     Sm          2.183023  
         Sm3       1.0000    0.83636   0.21784   0.40595   Biso      1.000     Sm          2.1830220000000002  
         Sm4       1.0000    0.16364   0.28216   0.90595   Biso      1.000     Sm          2.1830220000000002 