
##########################################################################
#               Crystallographic Information Format file
#               Produced by PyCifRW module
#
#  This is a CIF file.  CIF has been adopted by the International
#  Union of Crystallography as the standard for data archiving and
#  transmission.
#
#  For information on this file format, follow the CIF links at
#  http://www.iucr.org
##########################################################################

data_image0

_cell_length_a                          7.226
_cell_length_b                          10.2745
_cell_length_c                          13.2918
_cell_angle_alpha                       90
_cell_angle_beta                        90
_cell_angle_gamma                       99.493
_symmetry_space_group_name_H-M          'P 1'
_symmetry_int_tables_number             1
loop_
  _symmetry_equiv_pos_as_xyz
         'x, y, z' 
loop_
  _atom_site_label
  _atom_site_occupancy
  _atom_site_fract_x
  _atom_site_fract_y
  _atom_site_fract_z
  _atom_site_thermal_displace_type
  _atom_site_B_iso_or_equiv
  _atom_site_type_symbol
  _atom_site_charge
         C1        1.0000    0.45400   0.05490   0.52530   Biso      1.000     C          0.51221   
         C2        1.0000    0.99890   0.77450   0.33730   Biso      1.000     C          0.6701550000000001  
         C3        1.0000    0.94510   0.62550   0.34410   Biso      1.000     C          -0.24331399999999997          
         C4        1.0000    0.54600   0.44510   0.02530   Biso      1.000     C          0.51221   
         C5        1.0000    0.00110   0.72550   0.83730   Biso      1.000     C          0.6701550000000001  
         C6        1.0000    0.05490   0.87450   0.84410   Biso      1.000     C          -0.24331399999999997          
         C7        1.0000    0.54600   0.94510   0.47470   Biso      1.000     C          0.51221   
         C8        1.0000    0.00110   0.22550   0.66270   Biso      1.000     C          0.6701560000000001  
         C9        1.0000    0.05490   0.37450   0.65590   Biso      1.000     C          -0.24331399999999997          
         C10       1.0000    0.45400   0.55490   0.97470   Biso      1.000     C          0.51221   
         C11       1.0000    0.99890   0.27450   0.16270   Biso      1.000     C          0.6701550000000001  
         C12       1.0000    0.94510   0.12550   0.15590   Biso      1.000     C          -0.24331399999999997          
         Ce1       1.0000    0.16144   0.28177   0.90556   Biso      1.000     Ce          2.112858  
         Ce2       1.0000    0.16144   0.78177   0.59444   Biso      1.000     Ce          2.112854  
         Ce3       1.0000    0.83856   0.21823   0.40556   Biso      1.000     Ce          2.112854  
         Ce4       1.0000    0.83856   0.71823   0.09444   Biso      1.000     Ce          2.1128549999999997  
         H1        1.0000    0.12950   0.49870   0.75700   Biso      1.000     H          0.40668499999999996           
         H2        1.0000    0.59240   0.19050   0.04650   Biso      1.000     H          0.435029  
         H3        1.0000    0.87050   0.00130   0.25700   Biso      1.000     H          0.40668499999999996           
         H4        1.0000    0.05900   0.08610   0.14870   Biso      1.000     H          0.148093  
         H5        1.0000    0.94100   0.41390   0.64870   Biso      1.000     H          0.148094  
         H6        1.0000    0.05900   0.58610   0.35130   Biso      1.000     H          0.148093  
         H7        1.0000    0.87050   0.50130   0.24300   Biso      1.000     H          0.40668499999999996           
         H8        1.0000    0.59240   0.69050   0.45350   Biso      1.000     H          0.435029  
         H9        1.0000    0.40760   0.80950   0.95350   Biso      1.000     H          0.435029  
         H10       1.0000    0.94100   0.91390   0.85130   Biso      1.000     H          0.148094  
         H11       1.0000    0.12950   0.99870   0.74300   Biso      1.000     H          0.40668499999999996           
         H12       1.0000    0.40760   0.30950   0.54650   Biso      1.000     H          0.435029  
         O1        1.0000    0.46760   0.82820   0.49110   Biso      1.000     O          -0.590354           
         O2        1.0000    0.39630   0.87310   0.91820   Biso      1.000     O          -0.660682           
         O3        1.0000    0.13230   0.86810   0.04597   Biso      1.000     O          -0.856799           
         O4        1.0000    0.25620   0.07530   0.94380   Biso      1.000     O          -0.834266           
         O5        1.0000    0.15170   0.92450   0.75481   Biso      1.000     O          -0.587889           
         O6        1.0000    0.92070   0.66630   0.91197   Biso      1.000     O          -0.655455           
         O7        1.0000    0.03960   0.66930   0.75700   Biso      1.000     O          -0.631998           
         O8        1.0000    0.60370   0.62690   0.41820   Biso      1.000     O          -0.660682           
         O9        1.0000    0.46760   0.32820   0.00890   Biso      1.000     O          -0.590355           
         O10       1.0000    0.86770   0.63190   0.54597   Biso      1.000     O          -0.856799           
         O11       1.0000    0.69130   0.98060   0.42480   Biso      1.000     O          -0.6007399999999999           
         O12       1.0000    0.74380   0.42470   0.44380   Biso      1.000     O          -0.834266           
         O13       1.0000    0.84830   0.57550   0.25481   Biso      1.000     O          -0.587889           
         O14       1.0000    0.07930   0.83370   0.41197   Biso      1.000     O          -0.655455           
         O15       1.0000    0.96040   0.83070   0.25700   Biso      1.000     O          -0.631998           
         O16       1.0000    0.69130   0.48060   0.07520   Biso      1.000     O          -0.6007399999999999           
         O17       1.0000    0.03960   0.16930   0.74300   Biso      1.000     O          -0.631998           
         O18       1.0000    0.30870   0.51940   0.92480   Biso      1.000     O          -0.600741           
         O19       1.0000    0.15170   0.42450   0.74519   Biso      1.000     O          -0.587889           
         O20       1.0000    0.30870   0.01940   0.57520   Biso      1.000     O          -0.600741           
         O21       1.0000    0.60370   0.12690   0.08180   Biso      1.000     O          -0.660682           
         O22       1.0000    0.86770   0.13190   0.95403   Biso      1.000     O          -0.856799           
         O23       1.0000    0.92070   0.16630   0.58803   Biso      1.000     O          -0.655455           
         O24       1.0000    0.84830   0.07550   0.24519   Biso      1.000     O          -0.587889           
         O25       1.0000    0.74380   0.92470   0.05620   Biso      1.000     O          -0.8342649999999999           
         O26       1.0000    0.96040   0.33070   0.24300   Biso      1.000     O          -0.631998           
         O27       1.0000    0.53240   0.67180   0.99110   Biso      1.000     O          -0.590354           
         O28       1.0000    0.39630   0.37310   0.58180   Biso      1.000     O          -0.660682           
         O29       1.0000    0.13230   0.36810   0.45403   Biso      1.000     O          -0.856799           
         O30       1.0000    0.25620   0.57530   0.55620   Biso      1.000     O          -0.8342649999999999           
         O31       1.0000    0.07930   0.33370   0.08803   Biso      1.000     O          -0.655455           
         O32       1.0000    0.53240   0.17180   0.50890   Biso      1.000     O          -0.590354           
         P1        1.0000    0.78628   0.07245   0.05061   Biso      1.000     P          1.376469  
         P2        1.0000    0.21372   0.42755   0.55061   Biso      1.000     P          1.376468  
         P3        1.0000    0.21372   0.92755   0.94939   Biso      1.000     P          1.376468  
         P4        1.0000    0.78628   0.57245   0.44939   Biso      1.000     P          1.376468 