
##########################################################################
#               Crystallographic Information Format file
#               Produced by PyCifRW module
#
#  This is a CIF file.  CIF has been adopted by the International
#  Union of Crystallography as the standard for data archiving and
#  transmission.
#
#  For information on this file format, follow the CIF links at
#  http://www.iucr.org
##########################################################################

data_image0

_cell_length_a                          7.2326
_cell_length_b                          10.2337
_cell_length_c                          13.1558
_cell_angle_alpha                       90
_cell_angle_beta                        90
_cell_angle_gamma                       100.107
_symmetry_space_group_name_H-M          'P 1'
_symmetry_int_tables_number             1
loop_
  _symmetry_equiv_pos_as_xyz
         'x, y, z' 
loop_
  _atom_site_label
  _atom_site_occupancy
  _atom_site_fract_x
  _atom_site_fract_y
  _atom_site_fract_z
  _atom_site_thermal_displace_type
  _atom_site_B_iso_or_equiv
  _atom_site_type_symbol
  _atom_site_charge
         C1        1.0000    0.45310   0.05530   0.52430   Biso      1.000     C          0.517777  
         C2        1.0000    0.99970   0.27450   0.16340   Biso      1.000     C          0.676657  
         C3        1.0000    0.94410   0.12520   0.15620   Biso      1.000     C          -0.246869           
         C4        1.0000    0.45310   0.55530   0.97570   Biso      1.000     C          0.517777  
         C5        1.0000    0.00030   0.22550   0.66340   Biso      1.000     C          0.676657  
         C6        1.0000    0.54690   0.94470   0.47570   Biso      1.000     C          0.517777  
         C7        1.0000    0.05590   0.37480   0.65620   Biso      1.000     C          -0.246869           
         C8        1.0000    0.00030   0.72550   0.83660   Biso      1.000     C          0.676658  
         C9        1.0000    0.99970   0.77450   0.33660   Biso      1.000     C          0.676657  
         C10       1.0000    0.94410   0.62520   0.34380   Biso      1.000     C          -0.24686799999999998          
         C11       1.0000    0.54690   0.44470   0.02430   Biso      1.000     C          0.517777  
         C12       1.0000    0.05590   0.87480   0.84380   Biso      1.000     C          -0.24686799999999998          
         H1        1.0000    0.05770   0.58600   0.35050   Biso      1.000     H          0.150385  
         H2        1.0000    0.86790   0.50040   0.24140   Biso      1.000     H          0.407457  
         H3        1.0000    0.59290   0.68800   0.45530   Biso      1.000     H          0.437591  
         H4        1.0000    0.94230   0.91400   0.85050   Biso      1.000     H          0.150385  
         H5        1.0000    0.13210   0.99960   0.74140   Biso      1.000     H          0.407457  
         H6        1.0000    0.94230   0.41400   0.64950   Biso      1.000     H          0.150385  
         H7        1.0000    0.13210   0.49960   0.75860   Biso      1.000     H          0.407457  
         H8        1.0000    0.05770   0.08600   0.14950   Biso      1.000     H          0.150385  
         H9        1.0000    0.86790   0.00040   0.25860   Biso      1.000     H          0.407457  
         H10       1.0000    0.59290   0.18800   0.04470   Biso      1.000     H          0.437591  
         H11       1.0000    0.40710   0.81200   0.95530   Biso      1.000     H          0.437591  
         H12       1.0000    0.40710   0.31200   0.54470   Biso      1.000     H          0.437591  
         Nd1       1.0000    0.16300   0.28187   0.90549   Biso      1.000     Nd          2.178236  
         Nd2       1.0000    0.16300   0.78187   0.59451   Biso      1.000     Nd          2.1782369999999998  
         Nd3       1.0000    0.83700   0.71813   0.09451   Biso      1.000     Nd          2.178235  
         Nd4       1.0000    0.83700   0.21813   0.40549   Biso      1.000     Nd          2.1782369999999998  
         O1        1.0000    0.91910   0.16620   0.58740   Biso      1.000     O          -0.669176           
         O2        1.0000    0.39630   0.87590   0.91960   Biso      1.000     O          -0.662537           
         O3        1.0000    0.13040   0.86860   0.04770   Biso      1.000     O          -0.871664           
         O4        1.0000    0.25460   0.07770   0.94560   Biso      1.000     O          -0.850894           
         O5        1.0000    0.15390   0.92520   0.75360   Biso      1.000     O          -0.602837           
         O6        1.0000    0.91910   0.66620   0.91260   Biso      1.000     O          -0.669176           
         O7        1.0000    0.03910   0.66940   0.75580   Biso      1.000     O          -0.6391479999999999           
         O8        1.0000    0.69490   0.48140   0.07310   Biso      1.000     O          -0.618566           
         O9        1.0000    0.60370   0.62410   0.41960   Biso      1.000     O          -0.662536           
         O10       1.0000    0.46720   0.82800   0.49140   Biso      1.000     O          -0.596916           
         O11       1.0000    0.86960   0.63140   0.54770   Biso      1.000     O          -0.871664           
         O12       1.0000    0.74540   0.42230   0.44560   Biso      1.000     O          -0.850894           
         O13       1.0000    0.84610   0.57480   0.25360   Biso      1.000     O          -0.602837           
         O14       1.0000    0.08090   0.83380   0.41260   Biso      1.000     O          -0.669176           
         O15       1.0000    0.96090   0.83060   0.25580   Biso      1.000     O          -0.6391479999999999           
         O16       1.0000    0.46720   0.32800   0.00860   Biso      1.000     O          -0.596917           
         O17       1.0000    0.69490   0.98140   0.42690   Biso      1.000     O          -0.618566           
         O18       1.0000    0.53280   0.17200   0.50860   Biso      1.000     O          -0.596917           
         O19       1.0000    0.08090   0.33380   0.08740   Biso      1.000     O          -0.669175           
         O20       1.0000    0.15390   0.42520   0.74640   Biso      1.000     O          -0.602837           
         O21       1.0000    0.25460   0.57770   0.55440   Biso      1.000     O          -0.850894           
         O22       1.0000    0.13040   0.36860   0.45230   Biso      1.000     O          -0.871664           
         O23       1.0000    0.39630   0.37590   0.58040   Biso      1.000     O          -0.662536           
         O24       1.0000    0.53280   0.67200   0.99140   Biso      1.000     O          -0.596917           
         O25       1.0000    0.30510   0.51860   0.92690   Biso      1.000     O          -0.618566           
         O26       1.0000    0.96090   0.33060   0.24420   Biso      1.000     O          -0.6391479999999999           
         O27       1.0000    0.03910   0.16940   0.74420   Biso      1.000     O          -0.6391479999999999           
         O28       1.0000    0.84610   0.07480   0.24640   Biso      1.000     O          -0.602837           
         O29       1.0000    0.74540   0.92230   0.05440   Biso      1.000     O          -0.850894           
         O30       1.0000    0.86960   0.13140   0.95230   Biso      1.000     O          -0.871664           
         O31       1.0000    0.60370   0.12410   0.08040   Biso      1.000     O          -0.662536           
         O32       1.0000    0.30510   0.01860   0.57310   Biso      1.000     O          -0.618566           
         P1        1.0000    0.21255   0.42931   0.54946   Biso      1.000     P          1.390503  
         P2        1.0000    0.78745   0.57069   0.45054   Biso      1.000     P          1.3905020000000001  
         P3        1.0000    0.78745   0.07069   0.04946   Biso      1.000     P          1.3905020000000001  
         P4        1.0000    0.21255   0.92931   0.95054   Biso      1.000     P          1.3905020000000001 