
##########################################################################
#               Crystallographic Information Format file
#               Produced by PyCifRW module
#
#  This is a CIF file.  CIF has been adopted by the International
#  Union of Crystallography as the standard for data archiving and
#  transmission.
#
#  For information on this file format, follow the CIF links at
#  http://www.iucr.org
##########################################################################

data_image0

_cell_length_a                          7.2293
_cell_length_b                          10.198
_cell_length_c                          13.0429
_cell_angle_alpha                       90
_cell_angle_beta                        90
_cell_angle_gamma                       100.541
_symmetry_space_group_name_H-M          'P 1'
_symmetry_int_tables_number             1
loop_
  _symmetry_equiv_pos_as_xyz
         'x, y, z' 
loop_
  _atom_site_label
  _atom_site_occupancy
  _atom_site_fract_x
  _atom_site_fract_y
  _atom_site_fract_z
  _atom_site_thermal_displace_type
  _atom_site_B_iso_or_equiv
  _atom_site_type_symbol
  _atom_site_charge
         C1        1.0000    0.45240   0.05520   0.52440   Biso      1.000     C          0.5110859999999999  
         C2        1.0000    0.99960   0.77400   0.33620   Biso      1.000     C          0.626397  
         C3        1.0000    0.94400   0.62350   0.34270   Biso      1.000     C          -0.191991           
         C4        1.0000    0.54760   0.44480   0.02440   Biso      1.000     C          0.5110899999999999  
         C5        1.0000    0.00040   0.72600   0.83620   Biso      1.000     C          0.626402  
         C6        1.0000    0.05600   0.87650   0.84270   Biso      1.000     C          -0.191998           
         C7        1.0000    0.54760   0.94480   0.47560   Biso      1.000     C          0.511084  
         C8        1.0000    0.00040   0.22600   0.66380   Biso      1.000     C          0.626398  
         C9        1.0000    0.05600   0.37650   0.65730   Biso      1.000     C          -0.19200699999999998          
         C10       1.0000    0.45240   0.55520   0.97560   Biso      1.000     C          0.511089  
         C11       1.0000    0.99960   0.27400   0.16380   Biso      1.000     C          0.626398  
         C12       1.0000    0.94400   0.12350   0.15730   Biso      1.000     C          -0.191996           
         Eu1       1.0000    0.16377   0.28214   0.90609   Biso      1.000     Eu          1.390451  
         Eu2       1.0000    0.16377   0.78214   0.59391   Biso      1.000     Eu          1.390444  
         Eu3       1.0000    0.83623   0.21786   0.40609   Biso      1.000     Eu          1.390443  
         Eu4       1.0000    0.83623   0.71786   0.09391   Biso      1.000     Eu          1.390462  
         H1        1.0000    0.13540   0.50100   0.76070   Biso      1.000     H          0.400187  
         H2        1.0000    0.59290   0.18520   0.04380   Biso      1.000     H          0.43063599999999996           
         H3        1.0000    0.86460   0.99900   0.26070   Biso      1.000     H          0.400187  
         H4        1.0000    0.05770   0.08440   0.15130   Biso      1.000     H          0.14986300000000002           
         H5        1.0000    0.94230   0.41560   0.65130   Biso      1.000     H          0.149866  
         H6        1.0000    0.05770   0.58440   0.34870   Biso      1.000     H          0.149861  
         H7        1.0000    0.86460   0.49900   0.23930   Biso      1.000     H          0.400187  
         H8        1.0000    0.59290   0.68520   0.45620   Biso      1.000     H          0.43063599999999996           
         H9        1.0000    0.40710   0.81480   0.95620   Biso      1.000     H          0.43063599999999996           
         H10       1.0000    0.94230   0.91560   0.84870   Biso      1.000     H          0.149864  
         H11       1.0000    0.13540   0.00100   0.73930   Biso      1.000     H          0.400188  
         H12       1.0000    0.40710   0.31480   0.54380   Biso      1.000     H          0.43063500000000005           
         O1        1.0000    0.46650   0.82750   0.49100   Biso      1.000     O          -0.47675  
         O2        1.0000    0.39640   0.87900   0.92030   Biso      1.000     O          -0.6514850000000001           
         O3        1.0000    0.12760   0.86800   0.04870   Biso      1.000     O          -0.7445430000000001           
         O4        1.0000    0.25290   0.08010   0.94670   Biso      1.000     O          -0.7288560000000001           
         O5        1.0000    0.15620   0.92640   0.75230   Biso      1.000     O          -0.494594           
         O6        1.0000    0.91870   0.66650   0.91250   Biso      1.000     O          -0.513018           
         O7        1.0000    0.03860   0.66940   0.75460   Biso      1.000     O          -0.554685           
         O8        1.0000    0.60360   0.62100   0.42030   Biso      1.000     O          -0.651488           
         O9        1.0000    0.46650   0.32750   0.00900   Biso      1.000     O          -0.47674799999999995          
         O10       1.0000    0.87240   0.63200   0.54870   Biso      1.000     O          -0.744537           
         O11       1.0000    0.69720   0.98200   0.42860   Biso      1.000     O          -0.46981999999999996          
         O12       1.0000    0.74710   0.41990   0.44670   Biso      1.000     O          -0.72885  
         O13       1.0000    0.84380   0.57360   0.25230   Biso      1.000     O          -0.49460200000000004          
         O14       1.0000    0.08130   0.83350   0.41250   Biso      1.000     O          -0.5130140000000001           
         O15       1.0000    0.96140   0.83060   0.25460   Biso      1.000     O          -0.5546909999999999           
         O16       1.0000    0.69720   0.48200   0.07140   Biso      1.000     O          -0.46982299999999994          
         O17       1.0000    0.03860   0.16940   0.74540   Biso      1.000     O          -0.554688           
         O18       1.0000    0.30280   0.51800   0.92860   Biso      1.000     O          -0.469822           
         O19       1.0000    0.15620   0.42640   0.74770   Biso      1.000     O          -0.494593           
         O20       1.0000    0.30280   0.01800   0.57140   Biso      1.000     O          -0.46981999999999996          
         O21       1.0000    0.60360   0.12100   0.07970   Biso      1.000     O          -0.6514850000000001           
         O22       1.0000    0.87240   0.13200   0.95130   Biso      1.000     O          -0.7445390000000001           
         O23       1.0000    0.91870   0.16650   0.58750   Biso      1.000     O          -0.513005           
         O24       1.0000    0.84380   0.07360   0.24770   Biso      1.000     O          -0.494591           
         O25       1.0000    0.74710   0.91990   0.05330   Biso      1.000     O          -0.728854           
         O26       1.0000    0.96140   0.33060   0.24540   Biso      1.000     O          -0.554685           
         O27       1.0000    0.53350   0.67250   0.99100   Biso      1.000     O          -0.47674799999999995          
         O28       1.0000    0.39640   0.37900   0.57970   Biso      1.000     O          -0.651483           
         O29       1.0000    0.12760   0.36800   0.45130   Biso      1.000     O          -0.744533           
         O30       1.0000    0.25290   0.58010   0.55330   Biso      1.000     O          -0.7288439999999999           
         O31       1.0000    0.08130   0.33350   0.08750   Biso      1.000     O          -0.513009           
         O32       1.0000    0.53350   0.17250   0.50900   Biso      1.000     O          -0.47675  
         P1        1.0000    0.78865   0.06892   0.04897   Biso      1.000     P          1.317115  
         P2        1.0000    0.21135   0.43108   0.54897   Biso      1.000     P          1.317107  
         P3        1.0000    0.21135   0.93108   0.95103   Biso      1.000     P          1.3171190000000002  
         P4        1.0000    0.78865   0.56892   0.45103   Biso      1.000     P          1.317116 