
##########################################################################
#               Crystallographic Information Format file
#               Produced by PyCifRW module
#
#  This is a CIF file.  CIF has been adopted by the International
#  Union of Crystallography as the standard for data archiving and
#  transmission.
#
#  For information on this file format, follow the CIF links at
#  http://www.iucr.org
##########################################################################

data_image0

_cell_length_a                          7.23
_cell_length_b                          10.2535
_cell_length_c                          13.2239
_cell_angle_alpha                       90
_cell_angle_beta                        90
_cell_angle_gamma                       99.869
_symmetry_space_group_name_H-M          'P 1'
_symmetry_int_tables_number             1
loop_
  _symmetry_equiv_pos_as_xyz
         'x, y, z' 
loop_
  _atom_site_label
  _atom_site_occupancy
  _atom_site_fract_x
  _atom_site_fract_y
  _atom_site_fract_z
  _atom_site_thermal_displace_type
  _atom_site_B_iso_or_equiv
  _atom_site_type_symbol
  _atom_site_charge
         C1        1.0000    0.45220   0.05420   0.52430   Biso      1.000     C          0.517517  
         C2        1.0000    0.99820   0.77430   0.33670   Biso      1.000     C          0.673138  
         C3        1.0000    0.94390   0.62510   0.34430   Biso      1.000     C          -0.244311           
         C4        1.0000    0.54780   0.44580   0.02430   Biso      1.000     C          0.517517  
         C5        1.0000    0.00180   0.72570   0.83670   Biso      1.000     C          0.673138  
         C6        1.0000    0.05610   0.87490   0.84430   Biso      1.000     C          -0.244311           
         C7        1.0000    0.54780   0.94580   0.47570   Biso      1.000     C          0.517518  
         C8        1.0000    0.00180   0.22570   0.66330   Biso      1.000     C          0.673138  
         C9        1.0000    0.05610   0.37490   0.65570   Biso      1.000     C          -0.244311           
         C10       1.0000    0.45220   0.55420   0.97570   Biso      1.000     C          0.517518  
         C11       1.0000    0.94390   0.12510   0.15570   Biso      1.000     C          -0.244311           
         C12       1.0000    0.99820   0.27430   0.16330   Biso      1.000     C          0.673138  
         H1        1.0000    0.13150   0.49880   0.75840   Biso      1.000     H          0.406405  
         H2        1.0000    0.94220   0.41400   0.64880   Biso      1.000     H          0.151555  
         H3        1.0000    0.40830   0.81110   0.95460   Biso      1.000     H          0.435909  
         H4        1.0000    0.13150   0.99880   0.74160   Biso      1.000     H          0.406404  
         H5        1.0000    0.94220   0.91400   0.85120   Biso      1.000     H          0.151555  
         H6        1.0000    0.59170   0.68890   0.45460   Biso      1.000     H          0.435909  
         H7        1.0000    0.86850   0.50120   0.24160   Biso      1.000     H          0.406404  
         H8        1.0000    0.05780   0.58600   0.35120   Biso      1.000     H          0.151555  
         H9        1.0000    0.05780   0.08600   0.14880   Biso      1.000     H          0.151555  
         H10       1.0000    0.86850   0.00120   0.25840   Biso      1.000     H          0.406405  
         H11       1.0000    0.59170   0.18890   0.04540   Biso      1.000     H          0.435909  
         H12       1.0000    0.40830   0.31110   0.54540   Biso      1.000     H          0.435909  
         O1        1.0000    0.25520   0.07650   0.94460   Biso      1.000     O          -0.8497680000000001           
         O2        1.0000    0.13130   0.86850   0.04690   Biso      1.000     O          -0.868812           
         O3        1.0000    0.03960   0.16900   0.74350   Biso      1.000     O          -0.635862           
         O4        1.0000    0.46800   0.82830   0.49130   Biso      1.000     O          -0.605532           
         O5        1.0000    0.69330   0.98100   0.42640   Biso      1.000     O          -0.608625           
         O6        1.0000    0.15320   0.92450   0.75380   Biso      1.000     O          -0.6028600000000001           
         O7        1.0000    0.39710   0.87500   0.91920   Biso      1.000     O          -0.659868           
         O8        1.0000    0.91940   0.66630   0.91240   Biso      1.000     O          -0.672149           
         O9        1.0000    0.74480   0.42350   0.44460   Biso      1.000     O          -0.8497680000000001           
         O10       1.0000    0.69330   0.48100   0.07360   Biso      1.000     O          -0.608625           
         O11       1.0000    0.96040   0.83100   0.25650   Biso      1.000     O          -0.635862           
         O12       1.0000    0.08060   0.83370   0.41240   Biso      1.000     O          -0.672149           
         O13       1.0000    0.84680   0.57550   0.25380   Biso      1.000     O          -0.6028600000000001           
         O14       1.0000    0.86870   0.63150   0.54690   Biso      1.000     O          -0.868812           
         O15       1.0000    0.60290   0.62500   0.41920   Biso      1.000     O          -0.659868           
         O16       1.0000    0.46800   0.32830   0.00870   Biso      1.000     O          -0.605532           
         O17       1.0000    0.91940   0.16630   0.58760   Biso      1.000     O          -0.672149           
         O18       1.0000    0.03960   0.66900   0.75650   Biso      1.000     O          -0.635862           
         O19       1.0000    0.15320   0.42450   0.74620   Biso      1.000     O          -0.6028600000000001           
         O20       1.0000    0.53200   0.17170   0.50870   Biso      1.000     O          -0.605532           
         O21       1.0000    0.13130   0.36850   0.45310   Biso      1.000     O          -0.868812           
         O22       1.0000    0.30670   0.01900   0.57360   Biso      1.000     O          -0.608625           
         O23       1.0000    0.25520   0.57650   0.55540   Biso      1.000     O          -0.8497680000000001           
         O24       1.0000    0.86870   0.13150   0.95310   Biso      1.000     O          -0.868812           
         O25       1.0000    0.74480   0.92350   0.05540   Biso      1.000     O          -0.8497680000000001           
         O26       1.0000    0.84680   0.07550   0.24620   Biso      1.000     O          -0.602859           
         O27       1.0000    0.60290   0.12500   0.08080   Biso      1.000     O          -0.659868           
         O28       1.0000    0.96040   0.33100   0.24350   Biso      1.000     O          -0.635861           
         O29       1.0000    0.30670   0.51900   0.92640   Biso      1.000     O          -0.608625           
         O30       1.0000    0.53200   0.67170   0.99130   Biso      1.000     O          -0.605532           
         O31       1.0000    0.39710   0.37500   0.58080   Biso      1.000     O          -0.659868           
         O32       1.0000    0.08060   0.33370   0.08760   Biso      1.000     O          -0.672149           
         P1        1.0000    0.78692   0.57166   0.45006   Biso      1.000     P          1.3861059999999998  
         P2        1.0000    0.21308   0.92834   0.95006   Biso      1.000     P          1.386107  
         P3        1.0000    0.21308   0.42834   0.54994   Biso      1.000     P          1.386107  
         P4        1.0000    0.78692   0.07166   0.04994   Biso      1.000     P          1.3861059999999998  
         Pr1       1.0000    0.16239   0.78166   0.59454   Biso      1.000     Pr          2.177155  
         Pr2       1.0000    0.83761   0.71834   0.09454   Biso      1.000     Pr          2.177155  
         Pr3       1.0000    0.83761   0.21834   0.40546   Biso      1.000     Pr          2.177155  
         Pr4       1.0000    0.16239   0.28166   0.90546   Biso      1.000     Pr          2.177156 