
##########################################################################
#               Crystallographic Information Format file
#               Produced by PyCifRW module
#
#  This is a CIF file.  CIF has been adopted by the International
#  Union of Crystallography as the standard for data archiving and
#  transmission.
#
#  For information on this file format, follow the CIF links at
#  http://www.iucr.org
##########################################################################

data_image0

_cell_length_a                          7.943
_cell_length_b                          7.943
_cell_length_c                          12.8125
_cell_angle_alpha                       90
_cell_angle_beta                        90
_cell_angle_gamma                       90
_symmetry_space_group_name_H-M          'P 1'
_symmetry_int_tables_number             1
loop_
  _symmetry_equiv_pos_as_xyz
         'x, y, z' 
loop_
  _atom_site_label
  _atom_site_occupancy
  _atom_site_fract_x
  _atom_site_fract_y
  _atom_site_fract_z
  _atom_site_thermal_displace_type
  _atom_site_B_iso_or_equiv
  _atom_site_type_symbol
  _atom_site_charge
         C1        1.0000    0.41050   0.27660   0.57250   Biso      1.000     C          0.746571  
         C2        1.0000    0.15300   0.38240   0.18960   Biso      1.000     C          0.127467  
         C3        1.0000    0.19630   0.30000   0.08510   Biso      1.000     C          0.569052  
         C4        1.0000    0.80370   0.70000   0.58510   Biso      1.000     C          0.569051  
         C5        1.0000    0.47530   0.28120   0.46210   Biso      1.000     C          -0.425968           
         C6        1.0000    0.61760   0.15300   0.43960   Biso      1.000     C          0.127467  
         C7        1.0000    0.70000   0.19630   0.33510   Biso      1.000     C          0.569052  
         C8        1.0000    0.58950   0.72340   0.07250   Biso      1.000     C          0.746571  
         C9        1.0000    0.52470   0.71880   0.96210   Biso      1.000     C          -0.425968           
         C10       1.0000    0.38240   0.84700   0.93960   Biso      1.000     C          0.127467  
         C11       1.0000    0.30000   0.80370   0.83510   Biso      1.000     C          0.569052  
         C12       1.0000    0.28120   0.52470   0.21210   Biso      1.000     C          -0.425968           
         C13       1.0000    0.27660   0.58950   0.32250   Biso      1.000     C          0.746571  
         C14       1.0000    0.72340   0.41050   0.82250   Biso      1.000     C          0.746571  
         C15       1.0000    0.71880   0.47530   0.71210   Biso      1.000     C          -0.425968           
         C16       1.0000    0.84700   0.61760   0.68960   Biso      1.000     C          0.127468  
         H1        1.0000    0.15910   0.29790   0.24520   Biso      1.000     H          0.078703  
         H2        1.0000    0.40550   0.07370   0.97960   Biso      1.000     H          0.413836  
         H3        1.0000    0.29790   0.84090   0.99520   Biso      1.000     H          0.078704  
         H4        1.0000    0.61760   0.74090   0.91490   Biso      1.000     H          0.155434  
         H5        1.0000    0.48330   0.60640   0.94730   Biso      1.000     H          0.166724  
         H6        1.0000    0.92630   0.40550   0.22960   Biso      1.000     H          0.413836  
         H7        1.0000    0.59450   0.92630   0.47960   Biso      1.000     H          0.41383500000000006           
         H8        1.0000    0.38240   0.25910   0.41490   Biso      1.000     H          0.155434  
         H9        1.0000    0.60640   0.51670   0.69730   Biso      1.000     H          0.166724  
         H10       1.0000    0.74090   0.38240   0.66490   Biso      1.000     H          0.155434  
         H11       1.0000    0.84090   0.70210   0.74520   Biso      1.000     H          0.078703  
         H12       1.0000    0.07370   0.59450   0.72960   Biso      1.000     H          0.413836  
         H13       1.0000    0.51670   0.39360   0.44730   Biso      1.000     H          0.166724  
         H14       1.0000    0.25910   0.61760   0.16490   Biso      1.000     H          0.155434  
         H15       1.0000    0.70210   0.15910   0.49520   Biso      1.000     H          0.078703  
         H16       1.0000    0.39360   0.48330   0.19730   Biso      1.000     H          0.166723  
         Mg1       1.0000    0.46953   0.11794   0.78700   Biso      1.000     Mg          1.421373  
         Mg2       1.0000    0.11794   0.53047   0.53700   Biso      1.000     Mg          1.4213719999999999  
         Mg3       1.0000    0.88206   0.46953   0.03700   Biso      1.000     Mg          1.421373  
         Mg4       1.0000    0.53047   0.88206   0.28700   Biso      1.000     Mg          1.4213719999999999  
         O1        1.0000    0.61810   0.30010   0.84930   Biso      1.000     O          -0.705284           
         O2        1.0000    0.67420   0.78940   0.58320   Biso      1.000     O          -0.5696260000000001           
         O3        1.0000    0.89660   0.66850   0.50770   Biso      1.000     O          -0.679126           
         O4        1.0000    0.98490   0.45040   0.18490   Biso      1.000     O          -0.636991           
         O5        1.0000    0.17130   0.52520   0.38410   Biso      1.000     O          -0.6621630000000001           
         O6        1.0000    0.38190   0.69990   0.34930   Biso      1.000     O          -0.705284           
         O7        1.0000    0.32580   0.21060   0.08320   Biso      1.000     O          -0.5696260000000001           
         O8        1.0000    0.10340   0.33150   0.00770   Biso      1.000     O          -0.679127           
         O9        1.0000    0.54960   0.98490   0.43490   Biso      1.000     O          -0.636991           
         O10       1.0000    0.47480   0.17130   0.63410   Biso      1.000     O          -0.6621630000000001           
         O11       1.0000    0.30010   0.38190   0.59930   Biso      1.000     O          -0.705284           
         O12       1.0000    0.78940   0.32580   0.33320   Biso      1.000     O          -0.5696260000000001           
         O13       1.0000    0.66850   0.10340   0.25770   Biso      1.000     O          -0.679126           
         O14       1.0000    0.45040   0.01510   0.93490   Biso      1.000     O          -0.636991           
         O15       1.0000    0.52520   0.82870   0.13410   Biso      1.000     O          -0.6621630000000001           
         O16       1.0000    0.69990   0.61810   0.09930   Biso      1.000     O          -0.705284           
         O17       1.0000    0.21060   0.67420   0.83320   Biso      1.000     O          -0.5696260000000001           
         O18       1.0000    0.33150   0.89660   0.75770   Biso      1.000     O          -0.679126           
         O19       1.0000    0.82870   0.47480   0.88410   Biso      1.000     O          -0.6621630000000001           
         O20       1.0000    0.01510   0.54960   0.68490   Biso      1.000     O          -0.636992 