
##########################################################################
#               Crystallographic Information Format file
#               Produced by PyCifRW module
#
#  This is a CIF file.  CIF has been adopted by the International
#  Union of Crystallography as the standard for data archiving and
#  transmission.
#
#  For information on this file format, follow the CIF links at
#  http://www.iucr.org
##########################################################################

data_image0

_cell_length_a                          17.41
_cell_length_b                          6.7444
_cell_length_c                          12.1646
_cell_angle_alpha                       90
_cell_angle_beta                        90
_cell_angle_gamma                       90
_symmetry_space_group_name_H-M          'P 1'
_symmetry_int_tables_number             1
loop_
  _symmetry_equiv_pos_as_xyz
         'x, y, z' 
loop_
  _atom_site_label
  _atom_site_occupancy
  _atom_site_fract_x
  _atom_site_fract_y
  _atom_site_fract_z
  _atom_site_thermal_displace_type
  _atom_site_B_iso_or_equiv
  _atom_site_type_symbol
  _atom_site_charge
         C1        1.0000    0.60046   0.75000   0.64000   Biso      1.000     C          0.619304  
         C2        1.0000    0.61712   0.25000   0.38880   Biso      1.000     C          0.622153  
         C3        1.0000    0.72625   0.07190   0.29830   Biso      1.000     C          -0.10904200000000001          
         C4        1.0000    0.17169   0.75000   0.79030   Biso      1.000     C          -0.025934           
         C5        1.0000    0.39954   0.25000   0.36000   Biso      1.000     C          0.619304  
         C6        1.0000    0.77375   0.92810   0.79830   Biso      1.000     C          -0.10904200000000001          
         C7        1.0000    0.70571   0.92800   0.73940   Biso      1.000     C          -0.105474           
         C8        1.0000    0.32831   0.25000   0.29030   Biso      1.000     C          -0.025934           
         C9        1.0000    0.70571   0.57200   0.73940   Biso      1.000     C          -0.105473           
         C10       1.0000    0.67169   0.75000   0.70970   Biso      1.000     C          -0.025932           
         C11       1.0000    0.20571   0.57200   0.76060   Biso      1.000     C          -0.105472           
         C12       1.0000    0.19204   0.25000   0.17240   Biso      1.000     C          -0.02737  
         C13       1.0000    0.11712   0.25000   0.11120   Biso      1.000     C          0.622153  
         C14       1.0000    0.22625   0.42810   0.20170   Biso      1.000     C          -0.10904100000000001          
         C15       1.0000    0.29429   0.42800   0.26060   Biso      1.000     C          -0.105473           
         C16       1.0000    0.38288   0.75000   0.61120   Biso      1.000     C          0.622153  
         C17       1.0000    0.30796   0.75000   0.67240   Biso      1.000     C          -0.027371           
         C18       1.0000    0.27375   0.57190   0.70170   Biso      1.000     C          -0.10904200000000001          
         C19       1.0000    0.77375   0.57190   0.79830   Biso      1.000     C          -0.109043           
         C20       1.0000    0.79429   0.07200   0.23940   Biso      1.000     C          -0.105474           
         C21       1.0000    0.82831   0.25000   0.20970   Biso      1.000     C          -0.025932999999999998         
         C22       1.0000    0.80796   0.75000   0.82760   Biso      1.000     C          -0.027368           
         C23       1.0000    0.27375   0.92810   0.70170   Biso      1.000     C          -0.10904100000000001          
         C24       1.0000    0.20571   0.92800   0.76060   Biso      1.000     C          -0.105473           
         C25       1.0000    0.88288   0.75000   0.88880   Biso      1.000     C          0.622153  
         C26       1.0000    0.69204   0.25000   0.32760   Biso      1.000     C          -0.02737  
         C27       1.0000    0.29429   0.07200   0.26060   Biso      1.000     C          -0.105472           
         C28       1.0000    0.89954   0.25000   0.14000   Biso      1.000     C          0.619304  
         C29       1.0000    0.22625   0.07190   0.20170   Biso      1.000     C          -0.10904200000000001          
         C30       1.0000    0.10046   0.75000   0.86000   Biso      1.000     C          0.619304  
         C31       1.0000    0.79429   0.42800   0.23940   Biso      1.000     C          -0.105472           
         C32       1.0000    0.72625   0.42810   0.29830   Biso      1.000     C          -0.10904200000000001          
         Ga1       1.0000    0.50000   0.50000   0.50000   Biso      1.000     Ga          1.511258  
         Ga2       1.0000    0.00000   0.50000   0.00000   Biso      1.000     Ga          1.511257  
         Ga3       1.0000    0.50000   0.00000   0.50000   Biso      1.000     Ga          1.511257  
         Ga4       1.0000    0.00000   0.00000   0.00000   Biso      1.000     Ga          1.511257  
         H1        1.0000    0.79650   0.45240   0.81820   Biso      1.000     H          0.123697  
         H2        1.0000    0.81720   0.54750   0.21980   Biso      1.000     H          0.126273  
         H3        1.0000    0.01800   0.75000   0.11400   Biso      1.000     H          0.710128  
         H4        1.0000    0.48200   0.25000   0.61400   Biso      1.000     H          0.710128  
         H5        1.0000    0.31720   0.54750   0.28020   Biso      1.000     H          0.126273  
         H6        1.0000    0.29650   0.04760   0.68180   Biso      1.000     H          0.123697  
         H7        1.0000    0.20350   0.54760   0.18180   Biso      1.000     H          0.123697  
         H8        1.0000    0.68280   0.45250   0.71980   Biso      1.000     H          0.126273  
         H9        1.0000    0.81720   0.95250   0.21980   Biso      1.000     H          0.126273  
         H10       1.0000    0.51800   0.75000   0.38600   Biso      1.000     H          0.710128  
         H11       1.0000    0.29650   0.45240   0.68180   Biso      1.000     H          0.123697  
         H12       1.0000    0.98200   0.25000   0.88600   Biso      1.000     H          0.710128  
         H13       1.0000    0.20350   0.95240   0.18180   Biso      1.000     H          0.123697  
         H14       1.0000    0.70350   0.54760   0.31820   Biso      1.000     H          0.123697  
         H15       1.0000    0.68280   0.04750   0.71980   Biso      1.000     H          0.126273  
         H16       1.0000    0.31720   0.95250   0.28020   Biso      1.000     H          0.126273  
         H17       1.0000    0.79650   0.04760   0.81820   Biso      1.000     H          0.123697  
         H18       1.0000    0.70350   0.95240   0.31820   Biso      1.000     H          0.123697  
         H19       1.0000    0.18280   0.45250   0.78020   Biso      1.000     H          0.126273  
         H20       1.0000    0.18280   0.04750   0.78020   Biso      1.000     H          0.126273  
         O1        1.0000    0.50563   0.75000   0.42870   Biso      1.000     O          -1.226665           
         O2        1.0000    0.99437   0.25000   0.92870   Biso      1.000     O          -1.226664           
         O3        1.0000    0.07387   0.91692   0.88610   Biso      1.000     O          -0.565999           
         O4        1.0000    0.00563   0.75000   0.07130   Biso      1.000     O          -1.226664           
         O5        1.0000    0.41090   0.91680   0.58881   Biso      1.000     O          -0.560893           
         O6        1.0000    0.42613   0.08308   0.38610   Biso      1.000     O          -0.565999           
         O7        1.0000    0.08910   0.08320   0.08881   Biso      1.000     O          -0.560894           
         O8        1.0000    0.92613   0.41692   0.11390   Biso      1.000     O          -0.565999           
         O9        1.0000    0.58910   0.41680   0.41119   Biso      1.000     O          -0.560894           
         O10       1.0000    0.57387   0.58308   0.61390   Biso      1.000     O          -0.565999           
         O11       1.0000    0.49437   0.25000   0.57130   Biso      1.000     O          -1.226665           
         O12       1.0000    0.91090   0.58320   0.91119   Biso      1.000     O          -0.560894           
         O13       1.0000    0.58910   0.08320   0.41119   Biso      1.000     O          -0.560894           
         O14       1.0000    0.57387   0.91692   0.61390   Biso      1.000     O          -0.565999           
         O15       1.0000    0.91090   0.91680   0.91119   Biso      1.000     O          -0.560894           
         O16       1.0000    0.07387   0.58308   0.88610   Biso      1.000     O          -0.565999           
         O17       1.0000    0.42613   0.41692   0.38610   Biso      1.000     O          -0.565999           
         O18       1.0000    0.08910   0.41680   0.08881   Biso      1.000     O          -0.560894           
         O19       1.0000    0.92613   0.08308   0.11390   Biso      1.000     O          -0.565999           
         O20       1.0000    0.41090   0.58320   0.58881   Biso      1.000     O          -0.560894 