
##########################################################################
#               Crystallographic Information Format file
#               Produced by PyCifRW module
#
#  This is a CIF file.  CIF has been adopted by the International
#  Union of Crystallography as the standard for data archiving and
#  transmission.
#
#  For information on this file format, follow the CIF links at
#  http://www.iucr.org
##########################################################################

data_image0

_cell_length_a                          9.5228
_cell_length_b                          9.5228
_cell_length_c                          17.47
_cell_angle_alpha                       90
_cell_angle_beta                        90
_cell_angle_gamma                       120
_symmetry_space_group_name_H-M          'P 1'
_symmetry_int_tables_number             1
loop_
  _symmetry_equiv_pos_as_xyz
         'x, y, z' 
loop_
  _atom_site_label
  _atom_site_occupancy
  _atom_site_fract_x
  _atom_site_fract_y
  _atom_site_fract_z
  _atom_site_thermal_displace_type
  _atom_site_B_iso_or_equiv
  _atom_site_type_symbol
  _atom_site_charge
         C1        1.0000    0.81700   0.16670   0.10530   Biso      1.000     C          0.6745180000000001  
         C2        1.0000    0.59980   0.69140   0.94790   Biso      1.000     C          -0.182523           
         C3        1.0000    0.18300   0.34970   0.89470   Biso      1.000     C          0.674515  
         C4        1.0000    0.09160   0.40020   0.94790   Biso      1.000     C          -0.182524           
         C5        1.0000    0.16670   0.81700   0.89470   Biso      1.000     C          0.6745180000000001  
         C6        1.0000    0.30860   0.90840   0.94790   Biso      1.000     C          -0.182522           
         C7        1.0000    0.65030   0.83330   0.60530   Biso      1.000     C          0.6745180000000001  
         C8        1.0000    0.59980   0.69140   0.55210   Biso      1.000     C          -0.182523           
         C9        1.0000    0.18300   0.34970   0.60530   Biso      1.000     C          0.674515  
         C10       1.0000    0.09160   0.40020   0.55210   Biso      1.000     C          -0.182525           
         C11       1.0000    0.16670   0.81700   0.60530   Biso      1.000     C          0.674519  
         C12       1.0000    0.30860   0.90840   0.55210   Biso      1.000     C          -0.182522           
         C13       1.0000    0.83330   0.65030   0.39470   Biso      1.000     C          0.674515  
         C14       1.0000    0.90840   0.30860   0.05210   Biso      1.000     C          -0.182523           
         C15       1.0000    0.83330   0.65030   0.10530   Biso      1.000     C          0.674515  
         C16       1.0000    0.69140   0.59980   0.05210   Biso      1.000     C          -0.182525           
         C17       1.0000    0.34970   0.18300   0.10530   Biso      1.000     C          0.6745180000000001  
         C18       1.0000    0.40020   0.09160   0.05210   Biso      1.000     C          -0.18252100000000002          
         C19       1.0000    0.65030   0.83330   0.89470   Biso      1.000     C          0.6745180000000001  
         C20       1.0000    0.81700   0.16670   0.39470   Biso      1.000     C          0.6745180000000001  
         C21       1.0000    0.90840   0.30860   0.44790   Biso      1.000     C          -0.182524           
         C22       1.0000    0.40020   0.09160   0.44790   Biso      1.000     C          -0.18252100000000002          
         C23       1.0000    0.34970   0.18300   0.39470   Biso      1.000     C          0.6745180000000001  
         C24       1.0000    0.69140   0.59980   0.44790   Biso      1.000     C          -0.182524           
         H1        1.0000    0.42470   0.02000   0.08140   Biso      1.000     H          0.12855999999999998           
         H2        1.0000    0.50300   0.67030   0.97570   Biso      1.000     H          0.116897  
         H3        1.0000    0.57530   0.59530   0.91860   Biso      1.000     H          0.12855899999999998           
         H4        1.0000    0.16730   0.49700   0.97570   Biso      1.000     H          0.116898  
         H5        1.0000    0.02000   0.42470   0.91860   Biso      1.000     H          0.12855999999999998           
         H6        1.0000    0.32970   0.83270   0.97570   Biso      1.000     H          0.116897  
         H7        1.0000    0.40470   0.98000   0.91860   Biso      1.000     H          0.12855999999999998           
         H8        1.0000    0.50300   0.67030   0.52430   Biso      1.000     H          0.116897  
         H9        1.0000    0.57530   0.59530   0.58140   Biso      1.000     H          0.12855899999999998           
         H10       1.0000    0.49700   0.16730   0.02430   Biso      1.000     H          0.116897  
         H11       1.0000    0.16730   0.49700   0.52430   Biso      1.000     H          0.116898  
         H12       1.0000    0.32970   0.83270   0.52430   Biso      1.000     H          0.116897  
         H13       1.0000    0.40470   0.98000   0.58140   Biso      1.000     H          0.12856099999999998           
         H14       1.0000    0.83270   0.32970   0.02430   Biso      1.000     H          0.116897  
         H15       1.0000    0.98000   0.40470   0.08140   Biso      1.000     H          0.12855899999999998           
         H16       1.0000    0.67030   0.50300   0.02430   Biso      1.000     H          0.116898  
         H17       1.0000    0.42470   0.02000   0.41860   Biso      1.000     H          0.12855999999999998           
         H18       1.0000    0.49700   0.16730   0.47570   Biso      1.000     H          0.116897  
         H19       1.0000    0.59530   0.57530   0.41860   Biso      1.000     H          0.12855999999999998           
         H20       1.0000    0.67030   0.50300   0.47570   Biso      1.000     H          0.116898  
         H21       1.0000    0.59530   0.57530   0.08140   Biso      1.000     H          0.12855999999999998           
         H22       1.0000    0.83270   0.32970   0.47570   Biso      1.000     H          0.116897  
         H23       1.0000    0.02000   0.42470   0.58140   Biso      1.000     H          0.12855999999999998           
         H24       1.0000    0.98000   0.40470   0.41860   Biso      1.000     H          0.12855899999999998           
         La1       1.0000    0.33333   0.66666   0.75000   Biso      1.000     La          2.006871  
         La2       1.0000    0.00000   0.00000   0.50000   Biso      1.000     La          1.757495  
         La3       1.0000    0.00000   0.00000   0.00000   Biso      1.000     La          1.757497  
         La4       1.0000    0.66667   0.33334   0.25000   Biso      1.000     La          2.006872  
         O1        1.0000    0.45090   0.27350   0.15490   Biso      1.000     O          -0.678665           
         O2        1.0000    0.21350   0.17250   0.09570   Biso      1.000     O          -0.5834010000000001           
         O3        1.0000    0.72650   0.17740   0.34510   Biso      1.000     O          -0.678666           
         O4        1.0000    0.82750   0.04100   0.40430   Biso      1.000     O          -0.5834020000000001           
         O5        1.0000    0.82260   0.54910   0.34510   Biso      1.000     O          -0.678654           
         O6        1.0000    0.95900   0.78650   0.40430   Biso      1.000     O          -0.583396           
         O7        1.0000    0.45090   0.27350   0.34510   Biso      1.000     O          -0.678665           
         O8        1.0000    0.21350   0.17250   0.40430   Biso      1.000     O          -0.5834010000000001           
         O9        1.0000    0.72720   0.72720   0.00000   Biso      1.000     O          -0.20556799999999997          
         O10       1.0000    0.00000   0.27280   0.00000   Biso      1.000     O          -0.20556999999999997          
         O11       1.0000    0.27280   0.00000   0.00000   Biso      1.000     O          -0.205571           
         O12       1.0000    0.72720   0.72720   0.50000   Biso      1.000     O          -0.205569           
         O13       1.0000    0.95900   0.78650   0.09570   Biso      1.000     O          -0.583396           
         O14       1.0000    0.82260   0.54910   0.15490   Biso      1.000     O          -0.678654           
         O15       1.0000    0.82750   0.04100   0.09570   Biso      1.000     O          -0.5834020000000001           
         O16       1.0000    0.72650   0.17740   0.15490   Biso      1.000     O          -0.678666           
         O17       1.0000    0.04100   0.82750   0.59570   Biso      1.000     O          -0.5834010000000001           
         O18       1.0000    0.17740   0.72650   0.65490   Biso      1.000     O          -0.678665           
         O19       1.0000    0.17250   0.21350   0.59570   Biso      1.000     O          -0.583396           
         O20       1.0000    0.27350   0.45090   0.65490   Biso      1.000     O          -0.678654           
         O21       1.0000    0.78650   0.95900   0.59570   Biso      1.000     O          -0.5834020000000001           
         O22       1.0000    0.54910   0.82260   0.65490   Biso      1.000     O          -0.678666           
         O23       1.0000    0.04100   0.82750   0.90430   Biso      1.000     O          -0.5834010000000001           
         O24       1.0000    0.17740   0.72650   0.84510   Biso      1.000     O          -0.678665           
         O25       1.0000    0.17250   0.21350   0.90430   Biso      1.000     O          -0.583396           
         O26       1.0000    0.27350   0.45090   0.84510   Biso      1.000     O          -0.678654           
         O27       1.0000    0.78650   0.95900   0.90430   Biso      1.000     O          -0.5834020000000001           
         O28       1.0000    0.54910   0.82260   0.84510   Biso      1.000     O          -0.678666           
         O29       1.0000    0.00000   0.27280   0.50000   Biso      1.000     O          -0.205567           
         O30       1.0000    0.27280   0.00000   0.50000   Biso      1.000     O          -0.205571 