
##########################################################################
#               Crystallographic Information Format file
#               Produced by PyCifRW module
#
#  This is a CIF file.  CIF has been adopted by the International
#  Union of Crystallography as the standard for data archiving and
#  transmission.
#
#  For information on this file format, follow the CIF links at
#  http://www.iucr.org
##########################################################################

data_image0

_cell_length_a                          9.119
_cell_length_b                          14.4711
_cell_length_c                          14.7355
_cell_angle_alpha                       90
_cell_angle_beta                        90
_cell_angle_gamma                       107.752
_symmetry_space_group_name_H-M          'P 1'
_symmetry_int_tables_number             1
loop_
  _symmetry_equiv_pos_as_xyz
         'x, y, z' 
loop_
  _atom_site_label
  _atom_site_occupancy
  _atom_site_fract_x
  _atom_site_fract_y
  _atom_site_fract_z
  _atom_site_thermal_displace_type
  _atom_site_B_iso_or_equiv
  _atom_site_type_symbol
  _atom_site_charge
         C1        1.0000    0.37570   0.65840   0.70150   Biso      1.000     C          -0.194347           
         C2        1.0000    0.27820   0.34930   0.54990   Biso      1.000     C          0.510063  
         C3        1.0000    0.00220   0.24540   0.79540   Biso      1.000     C          0.36596300000000004           
         C4        1.0000    0.72540   0.16390   0.79520   Biso      1.000     C          -0.082211           
         C5        1.0000    0.69400   0.25160   0.78790   Biso      1.000     C          -0.081851           
         C6        1.0000    0.81780   0.33700   0.78370   Biso      1.000     C          -0.045644           
         C7        1.0000    0.96750   0.33420   0.78800   Biso      1.000     C          -0.24632300000000001          
         C8        1.0000    0.89370   0.05870   0.80120   Biso      1.000     C          0.62369   
         C9        1.0000    0.53250   0.25510   0.78440   Biso      1.000     C          0.634352  
         C10       1.0000    0.22180   0.15070   0.04990   Biso      1.000     C          0.510063  
         C11       1.0000    0.50220   0.74540   0.70460   Biso      1.000     C          0.36596300000000004           
         C12       1.0000    0.22540   0.66390   0.70480   Biso      1.000     C          -0.082211           
         C13       1.0000    0.19400   0.75160   0.71210   Biso      1.000     C          -0.081851           
         C14       1.0000    0.96750   0.24490   0.28440   Biso      1.000     C          0.634352  
         C15       1.0000    0.31780   0.83700   0.71630   Biso      1.000     C          -0.045644           
         C16       1.0000    0.39370   0.55870   0.69880   Biso      1.000     C          0.62369   
         C17       1.0000    0.03250   0.75510   0.71560   Biso      1.000     C          0.634352  
         C18       1.0000    0.72180   0.65070   0.45010   Biso      1.000     C          0.510063  
         C19       1.0000    0.99780   0.75460   0.20460   Biso      1.000     C          0.36596300000000004           
         C20       1.0000    0.12430   0.84160   0.20150   Biso      1.000     C          -0.194347           
         C21       1.0000    0.27460   0.83610   0.20480   Biso      1.000     C          -0.082211           
         C22       1.0000    0.30600   0.74840   0.21210   Biso      1.000     C          -0.081851           
         C23       1.0000    0.18220   0.66300   0.21630   Biso      1.000     C          -0.045644           
         C24       1.0000    0.03250   0.66580   0.21200   Biso      1.000     C          -0.24632300000000001          
         C25       1.0000    0.10630   0.94130   0.19880   Biso      1.000     C          0.62369   
         C26       1.0000    0.46750   0.74490   0.21560   Biso      1.000     C          0.634352  
         C27       1.0000    0.77820   0.84930   0.95010   Biso      1.000     C          0.5100640000000001  
         C28       1.0000    0.46750   0.83420   0.71200   Biso      1.000     C          -0.24632300000000001          
         C29       1.0000    0.60630   0.44130   0.30120   Biso      1.000     C          0.62369   
         C30       1.0000    0.87570   0.15840   0.79850   Biso      1.000     C          -0.194347           
         C31       1.0000    0.68220   0.16300   0.28370   Biso      1.000     C          -0.045644           
         C32       1.0000    0.80600   0.24840   0.28790   Biso      1.000     C          -0.081851           
         C33       1.0000    0.77460   0.33610   0.29520   Biso      1.000     C          -0.082211           
         C34       1.0000    0.62430   0.34160   0.29850   Biso      1.000     C          -0.194347           
         C35       1.0000    0.49780   0.25460   0.29540   Biso      1.000     C          0.36596300000000004           
         C36       1.0000    0.53250   0.16580   0.28800   Biso      1.000     C          -0.24632300000000001          
         H1        1.0000    0.85810   0.39450   0.29800   Biso      1.000     H          0.12325699999999999           
         H2        1.0000    0.70130   0.10240   0.27790   Biso      1.000     H          0.121491  
         H3        1.0000    0.45050   0.10670   0.28610   Biso      1.000     H          0.128503  
         H4        1.0000    0.64190   0.10550   0.79800   Biso      1.000     H          0.12325699999999999           
         H5        1.0000    0.79870   0.39760   0.77790   Biso      1.000     H          0.121491  
         H6        1.0000    0.04950   0.39330   0.78610   Biso      1.000     H          0.128503  
         H7        1.0000    0.23890   0.08930   0.05330   Biso      1.000     H          0.012066  
         H8        1.0000    0.14190   0.60550   0.70200   Biso      1.000     H          0.12325699999999999           
         H9        1.0000    0.26110   0.41070   0.55330   Biso      1.000     H          0.012066  
         H10       1.0000    0.29870   0.89760   0.72210   Biso      1.000     H          0.121491  
         H11       1.0000    0.54950   0.89330   0.71390   Biso      1.000     H          0.128504  
         H12       1.0000    0.73890   0.58930   0.44670   Biso      1.000     H          0.012066  
         H13       1.0000    0.35810   0.89450   0.20200   Biso      1.000     H          0.12325699999999999           
         H14       1.0000    0.20130   0.60240   0.22210   Biso      1.000     H          0.121491  
         H15       1.0000    0.95050   0.60670   0.21390   Biso      1.000     H          0.128503  
         H16       1.0000    0.76110   0.91070   0.94670   Biso      1.000     H          0.012066  
         O1        1.0000    0.51250   0.33755   0.77600   Biso      1.000     O          -0.553578           
         O2        1.0000    0.21960   0.18740   0.97300   Biso      1.000     O          -0.528678           
         O3        1.0000    0.20290   0.19040   0.12200   Biso      1.000     O          -0.49472299999999997          
         O4        1.0000    0.64820   0.74736   0.70324   Biso      1.000     O          -0.56777  
         O5        1.0000    0.52390   0.54535   0.69042   Biso      1.000     O          -0.577015           
         O6        1.0000    0.27380   0.48774   0.70650   Biso      1.000     O          -0.5407850000000001           
         O7        1.0000    0.92570   0.67563   0.70910   Biso      1.000     O          -0.581498           
         O8        1.0000    0.97610   0.95465   0.19042   Biso      1.000     O          -0.577015           
         O9        1.0000    0.57430   0.82437   0.20910   Biso      1.000     O          -0.581498           
         O10       1.0000    0.22620   0.01226   0.20650   Biso      1.000     O          -0.5407850000000001           
         O11       1.0000    0.01250   0.83755   0.72400   Biso      1.000     O          -0.553579           
         O12       1.0000    0.85180   0.75264   0.20324   Biso      1.000     O          -0.56777  
         O13       1.0000    0.70290   0.69040   0.37800   Biso      1.000     O          -0.49472299999999997          
         O14       1.0000    0.71960   0.68740   0.52700   Biso      1.000     O          -0.528678           
         O15       1.0000    0.42570   0.17563   0.79090   Biso      1.000     O          -0.581498           
         O16       1.0000    0.48750   0.66245   0.22400   Biso      1.000     O          -0.553578           
         O17       1.0000    0.77380   0.98774   0.79350   Biso      1.000     O          -0.5407850000000001           
         O18       1.0000    0.79710   0.80960   0.87800   Biso      1.000     O          -0.49472299999999997          
         O19       1.0000    0.14820   0.24736   0.79676   Biso      1.000     O          -0.56777  
         O20       1.0000    0.02390   0.04535   0.80958   Biso      1.000     O          -0.577015           
         O21       1.0000    0.35180   0.25264   0.29676   Biso      1.000     O          -0.56777  
         O22       1.0000    0.47610   0.45465   0.30958   Biso      1.000     O          -0.577015           
         O23       1.0000    0.72620   0.51226   0.29350   Biso      1.000     O          -0.5407850000000001           
         O24       1.0000    0.78040   0.81260   0.02700   Biso      1.000     O          -0.528678           
         O25       1.0000    0.98750   0.16245   0.27600   Biso      1.000     O          -0.553578           
         O26       1.0000    0.28040   0.31260   0.47300   Biso      1.000     O          -0.528678           
         O27       1.0000    0.29710   0.30960   0.62200   Biso      1.000     O          -0.49472299999999997          
         O28       1.0000    0.07430   0.32437   0.29090   Biso      1.000     O          -0.581498           
         Zn1       1.0000    0.68311   0.63419   0.24739   Biso      1.000     Zn          0.969887  
         Zn2       1.0000    0.77724   0.86437   0.15094   Biso      1.000     Zn          1.005152  
         Zn3       1.0000    0.81689   0.86581   0.74739   Biso      1.000     Zn          0.969887  
         Zn4       1.0000    0.72276   0.63563   0.65094   Biso      1.000     Zn          1.005152  
         Zn5       1.0000    0.31689   0.36581   0.75261   Biso      1.000     Zn          0.969887  
         Zn6       1.0000    0.22276   0.13563   0.84906   Biso      1.000     Zn          1.0051510000000001  
         Zn7       1.0000    0.18311   0.13419   0.25261   Biso      1.000     Zn          0.969887  
         Zn8       1.0000    0.27724   0.36437   0.34906   Biso      1.000     Zn          1.0051510000000001 