
##########################################################################
#               Crystallographic Information Format file
#               Produced by PyCifRW module
#
#  This is a CIF file.  CIF has been adopted by the International
#  Union of Crystallography as the standard for data archiving and
#  transmission.
#
#  For information on this file format, follow the CIF links at
#  http://www.iucr.org
##########################################################################

data_image0

_cell_length_a                          8.18
_cell_length_b                          8.89
_cell_length_c                          29.9
_cell_angle_alpha                       90
_cell_angle_beta                        90
_cell_angle_gamma                       104.06
_symmetry_space_group_name_H-M          'P 1'
_symmetry_int_tables_number             1
loop_
  _symmetry_equiv_pos_as_xyz
         'x, y, z' 
loop_
  _atom_site_label
  _atom_site_occupancy
  _atom_site_fract_x
  _atom_site_fract_y
  _atom_site_fract_z
  _atom_site_thermal_displace_type
  _atom_site_B_iso_or_equiv
  _atom_site_type_symbol
  _atom_site_charge
         C1        1.0000    0.68330   0.96090   0.26410   Biso      1.000     C          -0.152755           
         C2        1.0000    0.80410   0.67190   0.12450   Biso      1.000     C          0.104109  
         C3        1.0000    0.56300   0.77550   0.15050   Biso      1.000     C          -0.186637           
         C4        1.0000    0.83010   0.12890   0.20790   Biso      1.000     C          -0.14477  
         C5        1.0000    0.75200   0.02570   0.17540   Biso      1.000     C          -0.134277           
         C6        1.0000    0.64010   0.88880   0.18630   Biso      1.000     C          0.103724  
         C7        1.0000    0.60490   0.85760   0.23140   Biso      1.000     C          -0.144117           
         C8        1.0000    0.79750   0.09740   0.25280   Biso      1.000     C          0.112496  
         C9        1.0000    0.89030   0.20750   0.28780   Biso      1.000     C          -0.179842           
         C10       1.0000    0.73670   0.31720   0.34730   Biso      1.000     C          0.102312  
         C11       1.0000    0.17060   0.49040   0.19080   Biso      1.000     C          0.125131  
         C12       1.0000    0.72190   0.44530   0.14240   Biso      1.000     C          0.126751  
         C13       1.0000    0.69590   0.32810   0.62450   Biso      1.000     C          0.104048  
         C14       1.0000    0.93700   0.22450   0.65050   Biso      1.000     C          -0.186646           
         C15       1.0000    0.74800   0.97430   0.67540   Biso      1.000     C          -0.134443           
         C16       1.0000    0.85990   0.11120   0.68630   Biso      1.000     C          0.103647  
         C17       1.0000    0.89510   0.14240   0.73140   Biso      1.000     C          -0.144079           
         C18       1.0000    0.81670   0.03910   0.76410   Biso      1.000     C          -0.152586           
         C19       1.0000    0.70250   0.90260   0.75280   Biso      1.000     C          0.11258   
         C20       1.0000    0.60970   0.79250   0.78780   Biso      1.000     C          -0.179833           
         C21       1.0000    0.76330   0.68280   0.84730   Biso      1.000     C          0.10244   
         C22       1.0000    0.67060   0.49040   0.30920   Biso      1.000     C          0.125154  
         C23       1.0000    0.77810   0.55470   0.64240   Biso      1.000     C          0.126771  
         C24       1.0000    0.22190   0.44530   0.35760   Biso      1.000     C          0.126767  
         C25       1.0000    0.39030   0.20750   0.21220   Biso      1.000     C          -0.179832           
         C26       1.0000    0.19590   0.32810   0.87550   Biso      1.000     C          0.104111  
         C27       1.0000    0.43700   0.22450   0.84950   Biso      1.000     C          -0.186636           
         C28       1.0000    0.16990   0.87110   0.79210   Biso      1.000     C          -0.14477  
         C29       1.0000    0.24800   0.97430   0.82460   Biso      1.000     C          -0.134277           
         C30       1.0000    0.35990   0.11120   0.81370   Biso      1.000     C          0.103724  
         C31       1.0000    0.39510   0.14240   0.76860   Biso      1.000     C          -0.144118           
         C32       1.0000    0.31670   0.03910   0.73590   Biso      1.000     C          -0.152753           
         C33       1.0000    0.20250   0.90260   0.74720   Biso      1.000     C          0.112495  
         C34       1.0000    0.10970   0.79250   0.71220   Biso      1.000     C          -0.179841           
         C35       1.0000    0.23670   0.31720   0.15270   Biso      1.000     C          0.102442  
         C36       1.0000    0.26330   0.68280   0.65270   Biso      1.000     C          0.102314  
         C37       1.0000    0.32940   0.50960   0.69080   Biso      1.000     C          0.125152  
         C38       1.0000    0.30410   0.67190   0.37550   Biso      1.000     C          0.10405   
         C39       1.0000    0.06300   0.77550   0.34950   Biso      1.000     C          -0.186644           
         C40       1.0000    0.33010   0.12890   0.29210   Biso      1.000     C          -0.144821           
         C41       1.0000    0.25200   0.02570   0.32460   Biso      1.000     C          -0.134442           
         C42       1.0000    0.14010   0.88880   0.31370   Biso      1.000     C          0.103647  
         C43       1.0000    0.10490   0.85760   0.26860   Biso      1.000     C          -0.144079           
         C44       1.0000    0.18330   0.96090   0.23590   Biso      1.000     C          -0.152586           
         C45       1.0000    0.29750   0.09740   0.24720   Biso      1.000     C          0.112581  
         C46       1.0000    0.27810   0.55470   0.85760   Biso      1.000     C          0.126746  
         C47       1.0000    0.82940   0.50960   0.80920   Biso      1.000     C          0.125133  
         C48       1.0000    0.66990   0.87110   0.70790   Biso      1.000     C          -0.14482  
         H1        1.0000    0.40550   0.22070   0.30050   Biso      1.000     H          0.10705   
         H2        1.0000    0.77580   0.04950   0.14540   Biso      1.000     H          0.124083  
         H3        1.0000    0.52800   0.76660   0.23970   Biso      1.000     H          0.114526  
         H4        1.0000    0.65880   0.93790   0.29400   Biso      1.000     H          0.109404  
         H5        1.0000    0.92280   0.14830   0.31200   Biso      1.000     H          0.104036  
         H6        1.0000    0.99230   0.27150   0.27480   Biso      1.000     H          0.12274   
         H7        1.0000    0.75280   0.25290   0.37060   Biso      1.000     H          0.100745  
         H8        1.0000    0.71500   0.34000   0.14600   Biso      1.000     H          0.098289  
         H9        1.0000    0.62750   0.57450   0.30140   Biso      1.000     H          0.106196  
         H10       1.0000    0.63390   0.23660   0.61170   Biso      1.000     H          0.125375  
         H11       1.0000    0.94020   0.16930   0.62260   Biso      1.000     H          0.112107  
         H12       1.0000    0.05200   0.27500   0.65870   Biso      1.000     H          0.12856   
         H13       1.0000    0.59450   0.77930   0.69950   Biso      1.000     H          0.107049  
         H14       1.0000    0.72420   0.95050   0.64540   Biso      1.000     H          0.12407   
         H15       1.0000    0.97200   0.23340   0.73970   Biso      1.000     H          0.114534  
         H16       1.0000    0.84120   0.06210   0.79400   Biso      1.000     H          0.109406  
         H17       1.0000    0.57720   0.85170   0.81200   Biso      1.000     H          0.104024  
         H18       1.0000    0.50770   0.72850   0.77480   Biso      1.000     H          0.122727  
         H19       1.0000    0.74720   0.74710   0.87060   Biso      1.000     H          0.100731  
         H20       1.0000    0.78500   0.66000   0.64600   Biso      1.000     H          0.09829   
         H21       1.0000    0.87250   0.42550   0.80140   Biso      1.000     H          0.106195  
         H22       1.0000    0.27580   0.04950   0.35460   Biso      1.000     H          0.12407   
         H23       1.0000    0.90550   0.22070   0.19950   Biso      1.000     H          0.107055  
         H24       1.0000    0.55980   0.83070   0.12260   Biso      1.000     H          0.11212   
         H25       1.0000    0.44800   0.72500   0.15870   Biso      1.000     H          0.128557  
         H26       1.0000    0.22420   0.95050   0.85460   Biso      1.000     H          0.124083  
         H27       1.0000    0.36610   0.76340   0.38830   Biso      1.000     H          0.125374  
         H28       1.0000    0.37250   0.42550   0.69860   Biso      1.000     H          0.106196  
         H29       1.0000    0.28500   0.66000   0.85400   Biso      1.000     H          0.098289  
         H30       1.0000    0.24720   0.74710   0.62940   Biso      1.000     H          0.100745  
         H31       1.0000    0.00770   0.72850   0.72520   Biso      1.000     H          0.122741  
         H32       1.0000    0.07720   0.85170   0.68800   Biso      1.000     H          0.104036  
         H33       1.0000    0.34120   0.06210   0.70600   Biso      1.000     H          0.109404  
         H34       1.0000    0.47200   0.23340   0.76030   Biso      1.000     H          0.114526  
         H35       1.0000    0.86610   0.76340   0.11170   Biso      1.000     H          0.125366  
         H36       1.0000    0.09450   0.77930   0.80050   Biso      1.000     H          0.107056  
         H37       1.0000    0.05980   0.83070   0.37740   Biso      1.000     H          0.112106  
         H38       1.0000    0.55200   0.27500   0.84130   Biso      1.000     H          0.128556  
         H39       1.0000    0.13390   0.23660   0.88830   Biso      1.000     H          0.125366  
         H40       1.0000    0.02800   0.76660   0.26030   Biso      1.000     H          0.114535  
         H41       1.0000    0.15880   0.93790   0.20600   Biso      1.000     H          0.109406  
         H42       1.0000    0.42280   0.14830   0.18800   Biso      1.000     H          0.104024  
         H43       1.0000    0.49230   0.27150   0.22520   Biso      1.000     H          0.122727  
         H44       1.0000    0.25280   0.25290   0.12940   Biso      1.000     H          0.100731  
         H45       1.0000    0.21500   0.34000   0.35400   Biso      1.000     H          0.098291  
         H46       1.0000    0.12750   0.57450   0.19860   Biso      1.000     H          0.106195  
         H47       1.0000    0.44020   0.16930   0.87740   Biso      1.000     H          0.11212   
         H48       1.0000    0.94800   0.72500   0.34130   Biso      1.000     H          0.128559  
         Mo1       1.0000    0.55119   0.82487   0.99755   Biso      1.000     Mo          0.95341   
         Mo2       1.0000    0.74364   0.93764   0.42203   Biso      1.000     Mo          1.387309  
         Mo3       1.0000    0.75636   0.06236   0.92203   Biso      1.000     Mo          1.386911  
         Mo4       1.0000    0.54540   0.91319   0.54392   Biso      1.000     Mo          2.194968  
         Mo5       1.0000    0.95460   0.08681   0.04392   Biso      1.000     Mo          2.194945  
         Mo6       1.0000    0.94881   0.17513   0.49755   Biso      1.000     Mo          0.953553  
         Mo7       1.0000    0.05119   0.82487   0.50245   Biso      1.000     Mo          0.953554  
         Mo8       1.0000    0.04540   0.91319   0.95608   Biso      1.000     Mo          2.194945  
         Mo9       1.0000    0.44881   0.17513   0.00245   Biso      1.000     Mo          0.95341   
         Mo10      1.0000    0.25636   0.06236   0.57797   Biso      1.000     Mo          1.387309  
         Mo11      1.0000    0.45460   0.08681   0.45608   Biso      1.000     Mo          2.194968  
         Mo12      1.0000    0.24364   0.93764   0.07797   Biso      1.000     Mo          1.38691   
         N1        1.0000    0.28770   0.30760   0.19426   Biso      1.000     N          0.184926  
         N2        1.0000    0.35200   0.54180   0.37500   Biso      1.000     N          -0.290434           
         N3        1.0000    0.15990   0.65780   0.35598   Biso      1.000     N          0.188895  
         N4        1.0000    0.24730   0.41900   0.21959   Biso      1.000     N          -0.278376           
         N5        1.0000    0.10060   0.51190   0.34560   Biso      1.000     N          -0.276726           
         N6        1.0000    0.21230   0.69240   0.69426   Biso      1.000     N          0.184958  
         N7        1.0000    0.60060   0.51190   0.15440   Biso      1.000     N          -0.276828           
         N8        1.0000    0.14800   0.45820   0.87500   Biso      1.000     N          -0.290392           
         N9        1.0000    0.34010   0.34220   0.85598   Biso      1.000     N          0.188868  
         N10       1.0000    0.25270   0.58100   0.71959   Biso      1.000     N          -0.27819  
         N11       1.0000    0.39940   0.48810   0.84560   Biso      1.000     N          -0.276793           
         N12       1.0000    0.34030   0.56890   0.64887   Biso      1.000     N          -0.295914           
         N13       1.0000    0.74730   0.41900   0.28041   Biso      1.000     N          -0.278207           
         N14       1.0000    0.15970   0.43110   0.14887   Biso      1.000     N          -0.2958   
         N15       1.0000    0.85200   0.54180   0.12500   Biso      1.000     N          -0.290391           
         N16       1.0000    0.78770   0.30760   0.30574   Biso      1.000     N          0.184974  
         N17       1.0000    0.65970   0.43110   0.35113   Biso      1.000     N          -0.295913           
         N18       1.0000    0.89940   0.48810   0.65440   Biso      1.000     N          -0.276759           
         N19       1.0000    0.75270   0.58100   0.78041   Biso      1.000     N          -0.278394           
         N20       1.0000    0.84010   0.34220   0.64402   Biso      1.000     N          0.188924  
         N21       1.0000    0.64800   0.45820   0.62500   Biso      1.000     N          -0.290434           
         N22       1.0000    0.71230   0.69240   0.80574   Biso      1.000     N          0.184942  
         N23       1.0000    0.84030   0.56890   0.85113   Biso      1.000     N          -0.2958   
         N24       1.0000    0.65990   0.65780   0.14402   Biso      1.000     N          0.1889    
         O1        1.0000    0.54740   0.99750   0.40465   Biso      1.000     O          -0.850297           
         O2        1.0000    0.03400   0.87960   0.01731   Biso      1.000     O          -0.875009           
         O3        1.0000    0.25370   0.01060   0.95029   Biso      1.000     O          -0.738536           
         O4        1.0000    0.25360   0.15020   0.03856   Biso      1.000     O          -0.884229           
         O5        1.0000    0.18960   0.74180   0.09113   Biso      1.000     O          -0.75976  
         O6        1.0000    0.40430   0.93940   0.03010   Biso      1.000     O          -0.748656           
         O7        1.0000    0.53450   0.73280   0.56686   Biso      1.000     O          -0.814612           
         O8        1.0000    0.04740   0.99750   0.09535   Biso      1.000     O          -0.850437           
         O9        1.0000    0.46600   0.12040   0.51731   Biso      1.000     O          -0.875086           
         O10       1.0000    0.24630   0.98940   0.45029   Biso      1.000     O          -0.738493           
         O11       1.0000    0.24640   0.84980   0.53856   Biso      1.000     O          -0.884255           
         O12       1.0000    0.31040   0.25820   0.59113   Biso      1.000     O          -0.759642           
         O13       1.0000    0.09570   0.06060   0.53010   Biso      1.000     O          -0.748704           
         O14       1.0000    0.03450   0.73280   0.93314   Biso      1.000     O          -0.814689           
         O15       1.0000    0.90430   0.93940   0.46990   Biso      1.000     O          -0.748704           
         O16       1.0000    0.45260   0.00250   0.59535   Biso      1.000     O          -0.850297           
         O17       1.0000    0.75360   0.15020   0.46144   Biso      1.000     O          -0.884255           
         O18       1.0000    0.75370   0.01060   0.54971   Biso      1.000     O          -0.738493           
         O19       1.0000    0.53400   0.87960   0.48269   Biso      1.000     O          -0.875086           
         O20       1.0000    0.95260   0.00250   0.90465   Biso      1.000     O          -0.850437           
         O21       1.0000    0.96550   0.26720   0.06686   Biso      1.000     O          -0.814689           
         O22       1.0000    0.59570   0.06060   0.96990   Biso      1.000     O          -0.748656           
         O23       1.0000    0.81040   0.25820   0.90887   Biso      1.000     O          -0.75976  
         O24       1.0000    0.74640   0.84980   0.96144   Biso      1.000     O          -0.88423  
         O25       1.0000    0.74630   0.98940   0.04971   Biso      1.000     O          -0.738536           
         O26       1.0000    0.96600   0.12040   0.98269   Biso      1.000     O          -0.875009           
         O27       1.0000    0.46550   0.26720   0.43314   Biso      1.000     O          -0.814612           
         O28       1.0000    0.68960   0.74180   0.40887   Biso      1.000     O          -0.759641           
         Zn1       1.0000    0.44002   0.49896   0.59045   Biso      1.000     Zn          0.817947  
         Zn2       1.0000    0.05998   0.50104   0.09045   Biso      1.000     Zn          0.817798  
         Zn3       1.0000    0.55998   0.50104   0.40955   Biso      1.000     Zn          0.817946  
         Zn4       1.0000    0.94002   0.49896   0.90955   Biso      1.000     Zn          0.817798 