
##########################################################################
#               Crystallographic Information Format file
#               Produced by PyCifRW module
#
#  This is a CIF file.  CIF has been adopted by the International
#  Union of Crystallography as the standard for data archiving and
#  transmission.
#
#  For information on this file format, follow the CIF links at
#  http://www.iucr.org
##########################################################################

data_image0

_cell_length_a                          4.5054
_cell_length_b                          10.3354
_cell_length_c                          10.8017
_cell_angle_alpha                       77.933
_cell_angle_beta                        79.23
_cell_angle_gamma                       83.148
_symmetry_space_group_name_H-M          'P 1'
_symmetry_int_tables_number             1
loop_
  _symmetry_equiv_pos_as_xyz
         'x, y, z' 
loop_
  _atom_site_label
  _atom_site_occupancy
  _atom_site_fract_x
  _atom_site_fract_y
  _atom_site_fract_z
  _atom_site_thermal_displace_type
  _atom_site_B_iso_or_equiv
  _atom_site_type_symbol
  _atom_site_charge
         C1        1.0000    0.21900   0.13690   0.25070   Biso      1.000     C          0.638714  
         C2        1.0000    0.60840   0.82500   0.99060   Biso      1.000     C          -0.087598           
         C3        1.0000    0.60230   0.79390   0.87300   Biso      1.000     C          -0.005574           
         C4        1.0000    0.42540   0.69610   0.86500   Biso      1.000     C          -0.17373  
         C5        1.0000    0.24910   0.62920   0.97360   Biso      1.000     C          0.146623  
         C6        1.0000    0.24750   0.66340   0.09220   Biso      1.000     C          -0.144957           
         C7        1.0000    0.42900   0.75860   0.10010   Biso      1.000     C          -0.021499           
         C8        1.0000    0.42670   0.79110   0.23080   Biso      1.000     C          0.6405489999999999  
         C9        1.0000    0.39160   0.17500   0.00940   Biso      1.000     C          -0.08759700000000001          
         C10       1.0000    0.39770   0.20610   0.12700   Biso      1.000     C          -0.005575           
         C11       1.0000    0.57460   0.30390   0.13500   Biso      1.000     C          -0.173731           
         C12       1.0000    0.78100   0.86310   0.74930   Biso      1.000     C          0.638712  
         C13       1.0000    0.75250   0.33660   0.90780   Biso      1.000     C          -0.144952           
         C14       1.0000    0.57100   0.24140   0.89990   Biso      1.000     C          -0.021503           
         C15       1.0000    0.57330   0.20890   0.76920   Biso      1.000     C          0.640552  
         C16       1.0000    0.75090   0.37080   0.02640   Biso      1.000     C          0.146617  
         Gd1       1.0000    0.17178   0.11326   0.57849   Biso      1.000     Gd          2.0956580000000002  
         Gd2       1.0000    0.82822   0.88674   0.42151   Biso      1.000     Gd          2.095657  
         H1        1.0000    0.42460   0.67480   0.78560   Biso      1.000     H          0.14060599999999998           
         H2        1.0000    0.12460   0.62220   0.16540   Biso      1.000     H          0.136888  
         H3        1.0000    0.87540   0.37780   0.83460   Biso      1.000     H          0.136889  
         H4        1.0000    0.72990   0.88920   0.99710   Biso      1.000     H          0.138811  
         H5        1.0000    0.27010   0.11080   0.00290   Biso      1.000     H          0.13881   
         H6        1.0000    0.57540   0.32520   0.21440   Biso      1.000     H          0.140605  
         N1        1.0000    0.07500   0.53180   0.95100   Biso      1.000     N          -0.066867           
         N2        1.0000    0.92500   0.46820   0.04900   Biso      1.000     N          -0.066794           
         O1        1.0000    0.94820   0.95060   0.75180   Biso      1.000     O          -0.601273           
         O2        1.0000    0.28720   0.91010   0.50070   Biso      1.000     O          -0.912501           
         O3        1.0000    0.21510   0.74800   0.32000   Biso      1.000     O          -0.6838350000000001           
         O4        1.0000    0.24900   0.17750   0.34980   Biso      1.000     O          -0.613939           
         O5        1.0000    0.71280   0.08990   0.49930   Biso      1.000     O          -0.9124959999999999           
         O6        1.0000    0.05180   0.04940   0.24820   Biso      1.000     O          -0.601276           
         O7        1.0000    0.36760   0.14300   0.75830   Biso      1.000     O          -0.626112           
         O8        1.0000    0.78490   0.25200   0.68000   Biso      1.000     O          -0.6838380000000001           
         O9        1.0000    0.63240   0.85700   0.24170   Biso      1.000     O          -0.62611  
         O10       1.0000    0.75100   0.82250   0.65020   Biso      1.000     O          -0.613937 