
##########################################################################
#               Crystallographic Information Format file
#               Produced by PyCifRW module
#
#  This is a CIF file.  CIF has been adopted by the International
#  Union of Crystallography as the standard for data archiving and
#  transmission.
#
#  For information on this file format, follow the CIF links at
#  http://www.iucr.org
##########################################################################

data_image0

_cell_length_a                          7.1834
_cell_length_b                          22.367
_cell_length_c                          8.4852
_cell_angle_alpha                       90
_cell_angle_beta                        90
_cell_angle_gamma                       90
_symmetry_space_group_name_H-M          'P 1'
_symmetry_int_tables_number             1
loop_
  _symmetry_equiv_pos_as_xyz
         'x, y, z' 
loop_
  _atom_site_label
  _atom_site_occupancy
  _atom_site_fract_x
  _atom_site_fract_y
  _atom_site_fract_z
  _atom_site_thermal_displace_type
  _atom_site_B_iso_or_equiv
  _atom_site_type_symbol
  _atom_site_charge
         C1        1.0000    0.25000   0.99330   0.82960   Biso      1.000     C          -0.10603599999999999          
         C2        1.0000    0.75000   0.90010   0.86330   Biso      1.000     C          -0.10918800000000001          
         C3        1.0000    0.25000   0.49970   0.16780   Biso      1.000     C          -0.006725           
         C4        1.0000    0.25000   0.49330   0.32960   Biso      1.000     C          -0.10603299999999999          
         C5        1.0000    0.25000   0.54320   0.43100   Biso      1.000     C          -0.034888           
         C6        1.0000    0.25000   0.59990   0.36330   Biso      1.000     C          -0.10918699999999999          
         C7        1.0000    0.75000   0.44320   0.09990   Biso      1.000     C          -0.09128  
         C8        1.0000    0.75000   0.39320   0.20320   Biso      1.000     C          -0.073459           
         C9        1.0000    0.75000   0.46620   0.60270   Biso      1.000     C          0.6025510000000001  
         C10       1.0000    0.75000   0.55720   0.07080   Biso      1.000     C          0.6088399999999999  
         C11       1.0000    0.25000   0.09990   0.86330   Biso      1.000     C          -0.10918800000000001          
         C12       1.0000    0.25000   0.04320   0.93100   Biso      1.000     C          -0.034887           
         C13       1.0000    0.25000   0.94280   0.57080   Biso      1.000     C          0.6088399999999999  
         C14       1.0000    0.25000   0.03380   0.10270   Biso      1.000     C          0.6025510000000001  
         C15       1.0000    0.25000   0.10680   0.70320   Biso      1.000     C          -0.07345299999999999          
         C16       1.0000    0.25000   0.05680   0.59990   Biso      1.000     C          -0.09128  
         C17       1.0000    0.25000   0.55680   0.09990   Biso      1.000     C          -0.09128  
         C18       1.0000    0.25000   0.60680   0.20320   Biso      1.000     C          -0.07345299999999999          
         C19       1.0000    0.75000   0.50030   0.16780   Biso      1.000     C          -0.006723999999999999         
         C20       1.0000    0.25000   0.44280   0.07080   Biso      1.000     C          0.608841  
         C21       1.0000    0.75000   0.95680   0.93100   Biso      1.000     C          -0.034887           
         C22       1.0000    0.75000   0.00670   0.82960   Biso      1.000     C          -0.10603499999999999          
         C23       1.0000    0.75000   0.00030   0.66780   Biso      1.000     C          -0.006723000000000001         
         C24       1.0000    0.75000   0.94320   0.59990   Biso      1.000     C          -0.09128  
         C25       1.0000    0.25000   0.53380   0.60270   Biso      1.000     C          0.6025520000000001  
         C26       1.0000    0.75000   0.96620   0.10270   Biso      1.000     C          0.6025510000000001  
         C27       1.0000    0.75000   0.05720   0.57080   Biso      1.000     C          0.608841  
         C28       1.0000    0.75000   0.89320   0.70320   Biso      1.000     C          -0.07345299999999999          
         C29       1.0000    0.75000   0.40010   0.36330   Biso      1.000     C          -0.109181           
         C30       1.0000    0.75000   0.45680   0.43100   Biso      1.000     C          -0.034888           
         C31       1.0000    0.75000   0.50670   0.32960   Biso      1.000     C          -0.10603299999999999          
         C32       1.0000    0.25000   0.99970   0.66780   Biso      1.000     C          -0.006722           
         H1        1.0000    0.75000   0.36650   0.42780   Biso      1.000     H          0.11754   
         H2        1.0000    0.75000   0.52390   0.74240   Biso      1.000     H          0.42384099999999997           
         H3        1.0000    0.25000   0.13350   0.92780   Biso      1.000     H          0.11754   
         H4        1.0000    0.75000   0.43820   0.99110   Biso      1.000     H          0.128886  
         H5        1.0000    0.75000   0.93820   0.49110   Biso      1.000     H          0.128886  
         H6        1.0000    0.25000   0.95500   0.87270   Biso      1.000     H          0.12839   
         H7        1.0000    0.75000   0.54500   0.37270   Biso      1.000     H          0.12839   
         H8        1.0000    0.75000   0.04500   0.87270   Biso      1.000     H          0.12839   
         H9        1.0000    0.75000   0.02390   0.24240   Biso      1.000     H          0.42384099999999997           
         H10       1.0000    0.75000   0.86650   0.92780   Biso      1.000     H          0.11754   
         H11       1.0000    0.25000   0.06180   0.49110   Biso      1.000     H          0.128886  
         H12       1.0000    0.25000   0.97610   0.24240   Biso      1.000     H          0.42384099999999997           
         H13       1.0000    0.25000   0.56180   0.99110   Biso      1.000     H          0.128886  
         H14       1.0000    0.25000   0.45500   0.37270   Biso      1.000     H          0.12839   
         H15       1.0000    0.25000   0.63350   0.42780   Biso      1.000     H          0.11754   
         H16       1.0000    0.25000   0.47610   0.74240   Biso      1.000     H          0.42384099999999997           
         O1        1.0000    0.25000   0.39460   0.14610   Biso      1.000     O          -0.669226           
         O2        1.0000    0.75000   0.77930   0.75350   Biso      1.000     O          -0.718483           
         O3        1.0000    0.75000   0.10540   0.64610   Biso      1.000     O          -0.669225           
         O4        1.0000    0.75000   0.05620   0.42490   Biso      1.000     O          -0.644069           
         O5        1.0000    0.75000   0.02190   0.14590   Biso      1.000     O          -0.527937           
         O6        1.0000    0.25000   0.07510   0.19880   Biso      1.000     O          -0.538359           
         O7        1.0000    0.41670   0.18540   0.52470   Biso      1.000     O          -0.704813           
         O8        1.0000    0.41670   0.68540   0.02470   Biso      1.000     O          -0.704813           
         O9        1.0000    0.58330   0.81460   0.52470   Biso      1.000     O          -0.704813           
         O10       1.0000    0.58330   0.31460   0.02470   Biso      1.000     O          -0.704813           
         O11       1.0000    0.91670   0.81460   0.52470   Biso      1.000     O          -0.704813           
         O12       1.0000    0.91670   0.31460   0.02470   Biso      1.000     O          -0.704813           
         O13       1.0000    0.08330   0.18540   0.52470   Biso      1.000     O          -0.704813           
         O14       1.0000    0.75000   0.92490   0.19880   Biso      1.000     O          -0.538359           
         O15       1.0000    0.25000   0.72070   0.25350   Biso      1.000     O          -0.718483           
         O16       1.0000    0.25000   0.47810   0.64590   Biso      1.000     O          -0.527937           
         O17       1.0000    0.25000   0.57510   0.69880   Biso      1.000     O          -0.538359           
         O18       1.0000    0.25000   0.97810   0.14590   Biso      1.000     O          -0.527937           
         O19       1.0000    0.25000   0.94380   0.42490   Biso      1.000     O          -0.644069           
         O20       1.0000    0.75000   0.27930   0.25350   Biso      1.000     O          -0.718483           
         O21       1.0000    0.75000   0.60540   0.14610   Biso      1.000     O          -0.669225           
         O22       1.0000    0.75000   0.55620   0.92490   Biso      1.000     O          -0.644069           
         O23       1.0000    0.25000   0.44380   0.92490   Biso      1.000     O          -0.644069           
         O24       1.0000    0.75000   0.52190   0.64590   Biso      1.000     O          -0.527937           
         O25       1.0000    0.08330   0.68540   0.02470   Biso      1.000     O          -0.704813           
         O26       1.0000    0.75000   0.42490   0.69880   Biso      1.000     O          -0.538359           
         O27       1.0000    0.25000   0.22070   0.75350   Biso      1.000     O          -0.718484           
         O28       1.0000    0.25000   0.89460   0.64610   Biso      1.000     O          -0.669225           
         S1        1.0000    0.25000   0.18077   0.62030   Biso      1.000     S          1.318142  
         S2        1.0000    0.75000   0.31923   0.12030   Biso      1.000     S          1.318142  
         S3        1.0000    0.75000   0.81923   0.62030   Biso      1.000     S          1.318141  
         S4        1.0000    0.25000   0.68077   0.12030   Biso      1.000     S          1.318142  
         Sr1       1.0000    0.25000   0.81749   0.42428   Biso      1.000     Sr          1.601076  
         Sr2       1.0000    0.25000   0.31749   0.92428   Biso      1.000     Sr          1.601076  
         Sr3       1.0000    0.75000   0.18251   0.42428   Biso      1.000     Sr          1.601076  
         Sr4       1.0000    0.75000   0.68251   0.92428   Biso      1.000     Sr          1.601076 