
##########################################################################
#               Crystallographic Information Format file
#               Produced by PyCifRW module
#
#  This is a CIF file.  CIF has been adopted by the International
#  Union of Crystallography as the standard for data archiving and
#  transmission.
#
#  For information on this file format, follow the CIF links at
#  http://www.iucr.org
##########################################################################

data_image0

_cell_length_a                          15.2159
_cell_length_b                          9.0611
_cell_length_c                          7.7533
_cell_angle_alpha                       90
_cell_angle_beta                        90
_cell_angle_gamma                       90
_symmetry_space_group_name_H-M          'P 1'
_symmetry_int_tables_number             1
loop_
  _symmetry_equiv_pos_as_xyz
         'x, y, z' 
loop_
  _atom_site_label
  _atom_site_occupancy
  _atom_site_fract_x
  _atom_site_fract_y
  _atom_site_fract_z
  _atom_site_thermal_displace_type
  _atom_site_B_iso_or_equiv
  _atom_site_type_symbol
  _atom_site_charge
         C1        1.0000    0.54317   0.53995   0.48051   Biso      1.000     C          0.067055  
         C2        1.0000    0.21085   0.23240   0.48051   Biso      1.000     C          -0.190748           
         C3        1.0000    0.18039   0.14244   0.60757   Biso      1.000     C          0.228626  
         C4        1.0000    0.22714   0.10578   0.77201   Biso      1.000     C          -0.545367           
         C5        1.0000    0.14929   0.23718   0.35346   Biso      1.000     C          0.20991   
         C6        1.0000    0.15580   0.32314   0.18902   Biso      1.000     C          -0.427591           
         C7        1.0000    0.61804   0.52927   0.91723   Biso      1.000     C          -0.138487           
         C8        1.0000    0.69805   0.45523   0.91723   Biso      1.000     C          -0.154553           
         C9        1.0000    0.70318   0.31196   0.98051   Biso      1.000     C          0.107018  
         C10       1.0000    0.62831   0.24274   0.04380   Biso      1.000     C          -0.16097  
         C11       1.0000    0.54830   0.31678   0.04380   Biso      1.000     C          -0.145911           
         C12       1.0000    0.78915   0.23240   0.98051   Biso      1.000     C          -0.190748           
         C13       1.0000    0.81961   0.14244   0.10757   Biso      1.000     C          0.228625  
         C14       1.0000    0.45170   0.31678   0.54380   Biso      1.000     C          -0.145911           
         C15       1.0000    0.77286   0.10578   0.27201   Biso      1.000     C          -0.545367           
         C16       1.0000    0.84420   0.32314   0.68902   Biso      1.000     C          -0.427591           
         C17       1.0000    0.45683   0.53995   0.98051   Biso      1.000     C          0.067055  
         C18       1.0000    0.38196   0.47073   0.91723   Biso      1.000     C          -0.138486           
         C19       1.0000    0.30195   0.54477   0.91723   Biso      1.000     C          -0.154553           
         C20       1.0000    0.29682   0.68804   0.98051   Biso      1.000     C          0.107018  
         C21       1.0000    0.37169   0.75726   0.04380   Biso      1.000     C          -0.16097  
         C22       1.0000    0.45170   0.68322   0.04380   Biso      1.000     C          -0.145911           
         C23       1.0000    0.21085   0.76760   0.98051   Biso      1.000     C          -0.190748           
         C24       1.0000    0.18039   0.85756   0.10757   Biso      1.000     C          0.228626  
         C25       1.0000    0.22714   0.89422   0.27201   Biso      1.000     C          -0.545367           
         C26       1.0000    0.14929   0.76282   0.85346   Biso      1.000     C          0.20991   
         C27       1.0000    0.15580   0.67686   0.68902   Biso      1.000     C          -0.427591           
         C28       1.0000    0.85071   0.23718   0.85346   Biso      1.000     C          0.209912  
         C29       1.0000    0.37169   0.24274   0.54380   Biso      1.000     C          -0.16097  
         C30       1.0000    0.54317   0.46005   0.98051   Biso      1.000     C          0.067056  
         C31       1.0000    0.29682   0.31196   0.48051   Biso      1.000     C          0.107019  
         C32       1.0000    0.81961   0.85756   0.60757   Biso      1.000     C          0.228618  
         C33       1.0000    0.30195   0.45523   0.41723   Biso      1.000     C          -0.154557           
         C34       1.0000    0.78915   0.76760   0.48051   Biso      1.000     C          -0.190739           
         C35       1.0000    0.38196   0.52927   0.41723   Biso      1.000     C          -0.138484           
         C36       1.0000    0.61804   0.47073   0.41723   Biso      1.000     C          -0.138486           
         C37       1.0000    0.85071   0.76282   0.35346   Biso      1.000     C          0.209909  
         C38       1.0000    0.84420   0.67686   0.18902   Biso      1.000     C          -0.427591           
         C39       1.0000    0.54830   0.68322   0.54380   Biso      1.000     C          -0.145911           
         C40       1.0000    0.62831   0.75726   0.54380   Biso      1.000     C          -0.16097  
         C41       1.0000    0.45683   0.46005   0.48051   Biso      1.000     C          0.067056  
         C42       1.0000    0.69805   0.54477   0.41723   Biso      1.000     C          -0.154553           
         C43       1.0000    0.77286   0.89422   0.77201   Biso      1.000     C          -0.545366           
         C44       1.0000    0.70318   0.68804   0.48051   Biso      1.000     C          0.107017  
         Cd1       1.0000    0.00000   0.00000   0.75000   Biso      1.000     Cd          0.707488  
         Cd2       1.0000    0.00000   0.00000   0.25000   Biso      1.000     Cd          0.707486  
         H1        1.0000    0.74922   0.49746   0.37398   Biso      1.000     H          0.115369  
         H2        1.0000    0.10125   0.59744   0.68179   Biso      1.000     H          0.13879   
         H3        1.0000    0.78131   0.38296   0.68569   Biso      1.000     H          0.136298  
         H4        1.0000    0.84774   0.24715   0.57860   Biso      1.000     H          0.131344  
         H5        1.0000    0.89875   0.40256   0.68179   Biso      1.000     H          0.138791  
         H6        1.0000    0.15226   0.75285   0.57860   Biso      1.000     H          0.131344  
         H7        1.0000    0.21869   0.61704   0.68569   Biso      1.000     H          0.136298  
         H8        1.0000    0.38547   0.37281   0.87398   Biso      1.000     H          0.103939  
         H9        1.0000    0.49713   0.73053   0.58705   Biso      1.000     H          0.113671  
         H10       1.0000    0.25078   0.49746   0.87398   Biso      1.000     H          0.115369  
         H11       1.0000    0.61453   0.37281   0.37398   Biso      1.000     H          0.103939  
         H12       1.0000    0.26252   0.81290   0.30606   Biso      1.000     H          0.172631  
         H13       1.0000    0.26335   0.97835   0.25477   Biso      1.000     H          0.175264  
         H14       1.0000    0.63182   0.85518   0.58705   Biso      1.000     H          0.114659  
         H15       1.0000    0.36818   0.85518   0.08705   Biso      1.000     H          0.114659  
         H16       1.0000    0.18526   0.91471   0.35967   Biso      1.000     H          0.160146  
         H17       1.0000    0.50287   0.73053   0.08705   Biso      1.000     H          0.113671  
         H18       1.0000    0.81474   0.91471   0.85967   Biso      1.000     H          0.160145  
         H19       1.0000    0.36818   0.14482   0.58705   Biso      1.000     H          0.114659  
         H20       1.0000    0.15226   0.24715   0.07860   Biso      1.000     H          0.131344  
         H21       1.0000    0.25078   0.50254   0.37398   Biso      1.000     H          0.115369  
         H22       1.0000    0.50287   0.26947   0.58705   Biso      1.000     H          0.113671  
         H23       1.0000    0.38547   0.62719   0.37398   Biso      1.000     H          0.103939  
         H24       1.0000    0.18526   0.08529   0.85967   Biso      1.000     H          0.160146  
         H25       1.0000    0.26335   0.02165   0.75477   Biso      1.000     H          0.175264  
         H26       1.0000    0.26252   0.18710   0.80606   Biso      1.000     H          0.172631  
         H27       1.0000    0.89875   0.59744   0.18179   Biso      1.000     H          0.138791  
         H28       1.0000    0.21869   0.38296   0.18569   Biso      1.000     H          0.136298  
         H29       1.0000    0.10125   0.40256   0.18179   Biso      1.000     H          0.138791  
         H30       1.0000    0.84774   0.75285   0.07860   Biso      1.000     H          0.131344  
         H31       1.0000    0.73748   0.18710   0.30606   Biso      1.000     H          0.172631  
         H32       1.0000    0.78131   0.61704   0.18569   Biso      1.000     H          0.136298  
         H33       1.0000    0.74922   0.50254   0.87398   Biso      1.000     H          0.115369  
         H34       1.0000    0.73665   0.02165   0.25477   Biso      1.000     H          0.175264  
         H35       1.0000    0.63182   0.14482   0.08705   Biso      1.000     H          0.114659  
         H36       1.0000    0.81474   0.08529   0.35967   Biso      1.000     H          0.160145  
         H37       1.0000    0.73665   0.97835   0.75477   Biso      1.000     H          0.175264  
         H38       1.0000    0.73748   0.81290   0.80606   Biso      1.000     H          0.172631  
         H39       1.0000    0.49713   0.26947   0.08705   Biso      1.000     H          0.113671  
         H40       1.0000    0.61453   0.62719   0.87398   Biso      1.000     H          0.103939  
         N1        1.0000    0.90000   0.90836   0.55904   Biso      1.000     N          -0.295415           
         N2        1.0000    0.10000   0.90836   0.05904   Biso      1.000     N          -0.295415           
         N3        1.0000    0.10000   0.09164   0.55904   Biso      1.000     N          -0.295415           
         N4        1.0000    0.08078   0.15019   0.40199   Biso      1.000     N          -0.269421           
         N5        1.0000    0.91922   0.84981   0.40199   Biso      1.000     N          -0.269421           
         N6        1.0000    0.91922   0.15019   0.90199   Biso      1.000     N          -0.269436           
         N7        1.0000    0.08078   0.84981   0.90199   Biso      1.000     N          -0.269421           
         N8        1.0000    0.90000   0.09164   0.05904   Biso      1.000     N          -0.295401 