
##########################################################################
#               Crystallographic Information Format file
#               Produced by PyCifRW module
#
#  This is a CIF file.  CIF has been adopted by the International
#  Union of Crystallography as the standard for data archiving and
#  transmission.
#
#  For information on this file format, follow the CIF links at
#  http://www.iucr.org
##########################################################################

data_image0

_cell_length_a                          10.1298
_cell_length_b                          17.0934
_cell_length_c                          11.0846
_cell_angle_alpha                       90
_cell_angle_beta                        108.696
_cell_angle_gamma                       90
_symmetry_space_group_name_H-M          'P 1'
_symmetry_int_tables_number             1
loop_
  _symmetry_equiv_pos_as_xyz
         'x, y, z' 
loop_
  _atom_site_label
  _atom_site_occupancy
  _atom_site_fract_x
  _atom_site_fract_y
  _atom_site_fract_z
  _atom_site_thermal_displace_type
  _atom_site_B_iso_or_equiv
  _atom_site_type_symbol
  _atom_site_charge
         C1        1.0000    0.99220   0.72359   0.01010   Biso      1.000     C          0.0026899999999999997         
         C2        1.0000    0.34430   0.04254   0.23530   Biso      1.000     C          -0.022757           
         C3        1.0000    0.72540   0.04011   0.43030   Biso      1.000     C          0.634742  
         C4        1.0000    0.36890   0.10728   0.42800   Biso      1.000     C          -0.039351           
         C5        1.0000    0.51060   0.09708   0.46520   Biso      1.000     C          -0.131472           
         C6        1.0000    0.57210   0.05836   0.38680   Biso      1.000     C          -0.007312999999999999         
         C7        1.0000    0.96990   0.86298   0.99940   Biso      1.000     C          -0.003543           
         C8        1.0000    0.11190   0.69587   0.68760   Biso      1.000     C          -0.016638999999999998         
         C9        1.0000    0.93910   0.79111   0.94250   Biso      1.000     C          -0.11759100000000001          
         C10       1.0000    0.08040   0.73151   0.13470   Biso      1.000     C          -0.116154           
         C11       1.0000    0.48580   0.46714   0.76920   Biso      1.000     C          -0.107714           
         C12       1.0000    0.11190   0.80413   0.18760   Biso      1.000     C          -0.016630000000000002         
         C13       1.0000    0.34430   0.45746   0.73530   Biso      1.000     C          -0.022757           
         C14       1.0000    0.72540   0.45989   0.93030   Biso      1.000     C          0.634742  
         C15       1.0000    0.36890   0.39272   0.92800   Biso      1.000     C          -0.039351           
         C16       1.0000    0.96370   0.64507   0.94800   Biso      1.000     C          0.618804  
         C17       1.0000    0.51060   0.40292   0.96520   Biso      1.000     C          -0.131472           
         C18       1.0000    0.48580   0.03286   0.26920   Biso      1.000     C          -0.107715           
         C19       1.0000    0.96370   0.85493   0.44800   Biso      1.000     C          0.618804  
         C20       1.0000    0.03010   0.13702   0.00060   Biso      1.000     C          -0.003542           
         C21       1.0000    0.06090   0.20889   0.05750   Biso      1.000     C          -0.117593           
         C22       1.0000    0.03630   0.35493   0.05200   Biso      1.000     C          0.618803  
         C23       1.0000    0.91960   0.26849   0.86530   Biso      1.000     C          -0.116156           
         C24       1.0000    0.51420   0.53286   0.23080   Biso      1.000     C          -0.107714           
         C25       1.0000    0.88810   0.19587   0.81240   Biso      1.000     C          -0.016630000000000002         
         C26       1.0000    0.08040   0.76849   0.63470   Biso      1.000     C          -0.116147           
         C27       1.0000    0.65570   0.54254   0.26470   Biso      1.000     C          -0.022757           
         C28       1.0000    0.63110   0.60728   0.07200   Biso      1.000     C          -0.039351           
         C29       1.0000    0.48940   0.59708   0.03480   Biso      1.000     C          -0.131472           
         C30       1.0000    0.42790   0.55836   0.11320   Biso      1.000     C          -0.007314           
         C31       1.0000    0.99220   0.77641   0.51010   Biso      1.000     C          0.002691  
         C32       1.0000    0.96990   0.63702   0.49940   Biso      1.000     C          -0.003543           
         C33       1.0000    0.93910   0.70889   0.44250   Biso      1.000     C          -0.11759100000000001          
         C34       1.0000    0.27460   0.54011   0.06970   Biso      1.000     C          0.634742  
         C35       1.0000    0.57210   0.44164   0.88680   Biso      1.000     C          -0.007314           
         C36       1.0000    0.00780   0.27641   0.98990   Biso      1.000     C          0.002694  
         C37       1.0000    0.03010   0.36298   0.50060   Biso      1.000     C          -0.003542           
         C38       1.0000    0.88810   0.30413   0.31240   Biso      1.000     C          -0.016638           
         C39       1.0000    0.65570   0.95746   0.76470   Biso      1.000     C          -0.022757           
         C40       1.0000    0.91960   0.23151   0.36530   Biso      1.000     C          -0.116147           
         C41       1.0000    0.27460   0.95989   0.56970   Biso      1.000     C          0.634742  
         C42       1.0000    0.03630   0.14507   0.55200   Biso      1.000     C          0.618803  
         C43       1.0000    0.06090   0.29111   0.55750   Biso      1.000     C          -0.117593           
         C44       1.0000    0.63110   0.89272   0.57200   Biso      1.000     C          -0.039351           
         C45       1.0000    0.48940   0.90292   0.53480   Biso      1.000     C          -0.131472           
         C46       1.0000    0.00780   0.22359   0.48990   Biso      1.000     C          0.002693  
         C47       1.0000    0.51420   0.96714   0.73080   Biso      1.000     C          -0.107715           
         C48       1.0000    0.42790   0.94164   0.61320   Biso      1.000     C          -0.007314           
         Dy1       1.0000    0.99107   0.50405   0.81682   Biso      1.000     Dy          2.023189  
         Dy2       1.0000    0.99107   0.99595   0.31682   Biso      1.000     Dy          2.023189  
         Dy3       1.0000    0.00893   0.49595   0.18318   Biso      1.000     Dy          2.023189  
         Dy4       1.0000    0.00893   0.00405   0.68318   Biso      1.000     Dy          2.023189  
         H1        1.0000    0.82730   0.30920   0.22980   Biso      1.000     H          0.135403  
         H2        1.0000    0.56590   0.11630   0.54360   Biso      1.000     H          0.140268  
         H3        1.0000    0.93200   0.59200   0.45430   Biso      1.000     H          0.124277  
         H4        1.0000    0.11760   0.21240   0.14190   Biso      1.000     H          0.140201  
         H5        1.0000    0.32850   0.13380   0.48060   Biso      1.000     H          0.139822  
         H6        1.0000    0.88190   0.31270   0.81790   Biso      1.000     H          0.139004  
         H7        1.0000    0.28710   0.02410   0.15710   Biso      1.000     H          0.131771  
         H8        1.0000    0.47570   0.50900   0.28710   Biso      1.000     H          0.149318  
         H9        1.0000    0.17270   0.69080   0.77020   Biso      1.000     H          0.135403  
         H10       1.0000    0.82730   0.19080   0.72980   Biso      1.000     H          0.135402  
         H11       1.0000    0.43410   0.88370   0.45640   Biso      1.000     H          0.140268  
         H12       1.0000    0.52430   0.00900   0.21290   Biso      1.000     H          0.149318  
         H13       1.0000    0.67150   0.63380   0.01940   Biso      1.000     H          0.139822  
         H14       1.0000    0.11810   0.81270   0.68210   Biso      1.000     H          0.139004  
         H15       1.0000    0.67150   0.86620   0.51940   Biso      1.000     H          0.139822  
         H16       1.0000    0.43410   0.61630   0.95640   Biso      1.000     H          0.140268  
         H17       1.0000    0.88240   0.71240   0.35810   Biso      1.000     H          0.140201  
         H18       1.0000    0.71290   0.52410   0.34290   Biso      1.000     H          0.131771  
         H19       1.0000    0.71290   0.97590   0.84290   Biso      1.000     H          0.131771  
         H20       1.0000    0.52430   0.49100   0.71290   Biso      1.000     H          0.149318  
         H21       1.0000    0.88240   0.78760   0.85810   Biso      1.000     H          0.140201  
         H22       1.0000    0.47570   0.99100   0.78710   Biso      1.000     H          0.149318  
         H23       1.0000    0.17270   0.80920   0.27020   Biso      1.000     H          0.135402  
         H24       1.0000    0.11760   0.28760   0.64190   Biso      1.000     H          0.140201  
         H25       1.0000    0.93200   0.90800   0.95430   Biso      1.000     H          0.124277  
         H26       1.0000    0.88190   0.18730   0.31790   Biso      1.000     H          0.139004  
         H27       1.0000    0.28710   0.47590   0.65710   Biso      1.000     H          0.131771  
         H28       1.0000    0.06800   0.09200   0.04570   Biso      1.000     H          0.124277  
         H29       1.0000    0.32850   0.36620   0.98060   Biso      1.000     H          0.139822  
         H30       1.0000    0.56590   0.38370   0.04360   Biso      1.000     H          0.140268  
         H31       1.0000    0.06800   0.40800   0.54570   Biso      1.000     H          0.124277  
         H32       1.0000    0.11810   0.68730   0.18210   Biso      1.000     H          0.139004  
         N1        1.0000    0.05510   0.86849   0.12060   Biso      1.000     N          0.367131  
         N2        1.0000    0.94490   0.13151   0.87940   Biso      1.000     N          0.367131  
         N3        1.0000    0.94490   0.36849   0.37940   Biso      1.000     N          0.367131  
         N4        1.0000    0.22480   0.54816   0.41150   Biso      1.000     N          0.7473380000000001  
         N5        1.0000    0.28800   0.42134   0.81470   Biso      1.000     N          0.361979  
         N6        1.0000    0.71200   0.92134   0.68530   Biso      1.000     N          0.361979  
         N7        1.0000    0.77520   0.04816   0.08850   Biso      1.000     N          0.7473380000000001  
         N8        1.0000    0.71200   0.57866   0.18530   Biso      1.000     N          0.361979  
         N9        1.0000    0.22480   0.95184   0.91150   Biso      1.000     N          0.7473380000000001  
         N10       1.0000    0.05510   0.63151   0.62060   Biso      1.000     N          0.367131  
         N11       1.0000    0.77520   0.45184   0.58850   Biso      1.000     N          0.7473380000000001  
         N12       1.0000    0.28800   0.07866   0.31470   Biso      1.000     N          0.361979  
         O1        1.0000    0.22620   0.98444   0.65400   Biso      1.000     O          -0.647841           
         O2        1.0000    0.02480   0.08484   0.48250   Biso      1.000     O          -0.734135           
         O3        1.0000    0.97520   0.58484   0.01750   Biso      1.000     O          -0.734135           
         O4        1.0000    0.67750   0.42667   0.50070   Biso      1.000     O          -0.396422           
         O5        1.0000    0.84950   0.91264   0.71830   Biso      1.000     O          -0.56725  
         O6        1.0000    0.20930   0.95172   0.45250   Biso      1.000     O          -0.669536           
         O7        1.0000    0.93420   0.63986   0.82900   Biso      1.000     O          -0.605669           
         O8        1.0000    0.13650   0.90592   0.83650   Biso      1.000     O          -0.547948           
         O9        1.0000    0.20420   0.02421   0.89090   Biso      1.000     O          -0.520138           
         O10       1.0000    0.32250   0.92667   0.99930   Biso      1.000     O          -0.396422           
         O11       1.0000    0.79070   0.45172   0.04750   Biso      1.000     O          -0.669536           
         O12       1.0000    0.86350   0.40592   0.66350   Biso      1.000     O          -0.547948           
         O13       1.0000    0.91290   0.06071   0.82720   Biso      1.000     O          -0.604474           
         O14       1.0000    0.06580   0.13986   0.67100   Biso      1.000     O          -0.605669           
         O15       1.0000    0.84950   0.58736   0.21830   Biso      1.000     O          -0.56725  
         O16       1.0000    0.02480   0.41516   0.98250   Biso      1.000     O          -0.734135           
         O17       1.0000    0.86350   0.09408   0.16350   Biso      1.000     O          -0.547948           
         O18       1.0000    0.93420   0.86014   0.32900   Biso      1.000     O          -0.605669           
         O19       1.0000    0.79070   0.04828   0.54750   Biso      1.000     O          -0.669536           
         O20       1.0000    0.97520   0.91516   0.51750   Biso      1.000     O          -0.734135           
         O21       1.0000    0.79580   0.97579   0.10910   Biso      1.000     O          -0.520138           
         O22       1.0000    0.15050   0.08736   0.28170   Biso      1.000     O          -0.56725  
         O23       1.0000    0.77380   0.01556   0.34600   Biso      1.000     O          -0.647842           
         O24       1.0000    0.15050   0.41264   0.78170   Biso      1.000     O          -0.56725  
         O25       1.0000    0.77380   0.48444   0.84600   Biso      1.000     O          -0.647842           
         O26       1.0000    0.08710   0.56071   0.67280   Biso      1.000     O          -0.6044729999999999           
         O27       1.0000    0.08710   0.93929   0.17280   Biso      1.000     O          -0.604474           
         O28       1.0000    0.22620   0.51556   0.15400   Biso      1.000     O          -0.647842           
         O29       1.0000    0.67750   0.07333   0.00070   Biso      1.000     O          -0.396422           
         O30       1.0000    0.20420   0.47579   0.39090   Biso      1.000     O          -0.520138           
         O31       1.0000    0.32250   0.57333   0.49930   Biso      1.000     O          -0.396422           
         O32       1.0000    0.13650   0.59408   0.33650   Biso      1.000     O          -0.547948           
         O33       1.0000    0.06580   0.36014   0.17100   Biso      1.000     O          -0.605669           
         O34       1.0000    0.20930   0.54828   0.95250   Biso      1.000     O          -0.669536           
         O35       1.0000    0.91290   0.43929   0.32720   Biso      1.000     O          -0.6044729999999999           
         O36       1.0000    0.79580   0.52421   0.60910   Biso      1.000     O          -0.520138 