
##########################################################################
#               Crystallographic Information Format file
#               Produced by PyCifRW module
#
#  This is a CIF file.  CIF has been adopted by the International
#  Union of Crystallography as the standard for data archiving and
#  transmission.
#
#  For information on this file format, follow the CIF links at
#  http://www.iucr.org
##########################################################################

data_image0

_cell_length_a                          8.2811
_cell_length_b                          9.8834
_cell_length_c                          10.1818
_cell_angle_alpha                       99.053
_cell_angle_beta                        90
_cell_angle_gamma                       90
_symmetry_space_group_name_H-M          'P 1'
_symmetry_int_tables_number             1
loop_
  _symmetry_equiv_pos_as_xyz
         'x, y, z' 
loop_
  _atom_site_label
  _atom_site_occupancy
  _atom_site_fract_x
  _atom_site_fract_y
  _atom_site_fract_z
  _atom_site_thermal_displace_type
  _atom_site_B_iso_or_equiv
  _atom_site_type_symbol
  _atom_site_charge
         C1        1.0000    0.01650   0.50540   0.42610   Biso      1.000     C          0.51012   
         C2        1.0000    0.89680   0.91710   0.26810   Biso      1.000     C          0.519827  
         C3        1.0000    0.90500   0.02220   0.17090   Biso      1.000     C          0.516469  
         C4        1.0000    0.39680   0.08290   0.23190   Biso      1.000     C          0.519827  
         C5        1.0000    0.40500   0.97780   0.32910   Biso      1.000     C          0.516469  
         C6        1.0000    0.48350   0.50540   0.92610   Biso      1.000     C          0.51012   
         C7        1.0000    0.51650   0.49460   0.07390   Biso      1.000     C          0.51012   
         C8        1.0000    0.10320   0.08290   0.73190   Biso      1.000     C          0.519827  
         C9        1.0000    0.98350   0.49460   0.57390   Biso      1.000     C          0.51012   
         C10       1.0000    0.60320   0.91710   0.76810   Biso      1.000     C          0.519827  
         C11       1.0000    0.59500   0.02220   0.67090   Biso      1.000     C          0.516469  
         C12       1.0000    0.09500   0.97780   0.82910   Biso      1.000     C          0.516469  
         O1        1.0000    0.30920   0.18380   0.26100   Biso      1.000     O          -0.565887           
         O2        1.0000    0.48020   0.05640   0.12614   Biso      1.000     O          -0.693597           
         O3        1.0000    0.49450   0.87710   0.29910   Biso      1.000     O          -0.572476           
         O4        1.0000    0.31670   0.00420   0.43020   Biso      1.000     O          -0.603256           
         O5        1.0000    0.06650   0.40110   0.35290   Biso      1.000     O          -0.584937           
         O6        1.0000    0.51980   0.94360   0.87386   Biso      1.000     O          -0.693597           
         O7        1.0000    0.81670   0.99580   0.06980   Biso      1.000     O          -0.603256           
         O8        1.0000    0.50900   0.61990   0.89240   Biso      1.000     O          -0.608293           
         O9        1.0000    0.99450   0.12290   0.20090   Biso      1.000     O          -0.572476           
         O10       1.0000    0.80920   0.81620   0.23900   Biso      1.000     O          -0.565888           
         O11       1.0000    0.98020   0.94360   0.37386   Biso      1.000     O          -0.693597           
         O12       1.0000    0.99100   0.61990   0.39240   Biso      1.000     O          -0.608293           
         O13       1.0000    0.43350   0.40110   0.85290   Biso      1.000     O          -0.584937           
         O14       1.0000    0.49100   0.38010   0.10760   Biso      1.000     O          -0.608293           
         O15       1.0000    0.19080   0.18380   0.76100   Biso      1.000     O          -0.565887           
         O16       1.0000    0.00550   0.87710   0.79910   Biso      1.000     O          -0.572476           
         O17       1.0000    0.18330   0.00420   0.93020   Biso      1.000     O          -0.603256           
         O18       1.0000    0.00900   0.38010   0.60760   Biso      1.000     O          -0.608293           
         O19       1.0000    0.93350   0.59890   0.64710   Biso      1.000     O          -0.584937           
         O20       1.0000    0.56650   0.59890   0.14710   Biso      1.000     O          -0.584937           
         O21       1.0000    0.69080   0.81620   0.73900   Biso      1.000     O          -0.565887           
         O22       1.0000    0.50550   0.12290   0.70090   Biso      1.000     O          -0.572476           
         O23       1.0000    0.68330   0.99580   0.56980   Biso      1.000     O          -0.603256           
         O24       1.0000    0.01980   0.05640   0.62614   Biso      1.000     O          -0.693597           
         Pr1       1.0000    0.59839   0.81500   0.06293   Biso      1.000     Pr          2.08203   
         Pr2       1.0000    0.09839   0.18500   0.43707   Biso      1.000     Pr          2.08203   
         Pr3       1.0000    0.40161   0.18500   0.93707   Biso      1.000     Pr          2.08203   
         Pr4       1.0000    0.90161   0.81500   0.56293   Biso      1.000     Pr          2.08203 