
##########################################################################
#               Crystallographic Information Format file
#               Produced by PyCifRW module
#
#  This is a CIF file.  CIF has been adopted by the International
#  Union of Crystallography as the standard for data archiving and
#  transmission.
#
#  For information on this file format, follow the CIF links at
#  http://www.iucr.org
##########################################################################

data_image0

_cell_length_a                          8.2883
_cell_length_b                          9.8917
_cell_length_c                          10.1887
_cell_angle_alpha                       99.04
_cell_angle_beta                        90
_cell_angle_gamma                       90
_symmetry_space_group_name_H-M          'P 1'
_symmetry_int_tables_number             1
loop_
  _symmetry_equiv_pos_as_xyz
         'x, y, z' 
loop_
  _atom_site_label
  _atom_site_occupancy
  _atom_site_fract_x
  _atom_site_fract_y
  _atom_site_fract_z
  _atom_site_thermal_displace_type
  _atom_site_B_iso_or_equiv
  _atom_site_type_symbol
  _atom_site_charge
         C1        1.0000    0.98430   0.99450   0.57430   Biso      1.000     C          0.509392  
         C2        1.0000    0.90490   0.52270   0.17040   Biso      1.000     C          0.516749  
         C3        1.0000    0.89800   0.41750   0.26800   Biso      1.000     C          0.515579  
         C4        1.0000    0.40490   0.47730   0.32960   Biso      1.000     C          0.516749  
         C5        1.0000    0.39800   0.58250   0.23200   Biso      1.000     C          0.515579  
         C6        1.0000    0.51570   0.99450   0.07430   Biso      1.000     C          0.509392  
         C7        1.0000    0.48430   0.00550   0.92570   Biso      1.000     C          0.509392  
         C8        1.0000    0.09510   0.47730   0.82960   Biso      1.000     C          0.516749  
         C9        1.0000    0.01570   0.00550   0.42570   Biso      1.000     C          0.509392  
         C10       1.0000    0.59510   0.52270   0.67040   Biso      1.000     C          0.516749  
         C11       1.0000    0.60200   0.41750   0.76800   Biso      1.000     C          0.515579  
         C12       1.0000    0.10200   0.58250   0.73200   Biso      1.000     C          0.515579  
         O1        1.0000    0.31650   0.50410   0.43040   Biso      1.000     O          -0.6024470000000001           
         O2        1.0000    0.49450   0.37690   0.29950   Biso      1.000     O          -0.5717720000000001           
         O3        1.0000    0.48000   0.55640   0.12610   Biso      1.000     O          -0.687775           
         O4        1.0000    0.30910   0.68390   0.26100   Biso      1.000     O          -0.571196           
         O5        1.0000    0.00970   0.88030   0.60750   Biso      1.000     O          -0.605229           
         O6        1.0000    0.50550   0.62310   0.70050   Biso      1.000     O          -0.5717720000000001           
         O7        1.0000    0.80910   0.31610   0.23900   Biso      1.000     O          -0.571196           
         O8        1.0000    0.56640   0.09910   0.14730   Biso      1.000     O          -0.587548           
         O9        1.0000    0.98000   0.44360   0.37390   Biso      1.000     O          -0.687775           
         O10       1.0000    0.81650   0.49590   0.06960   Biso      1.000     O          -0.6024470000000001           
         O11       1.0000    0.99450   0.62310   0.20050   Biso      1.000     O          -0.5717720000000001           
         O12       1.0000    0.93360   0.09910   0.64730   Biso      1.000     O          -0.587548           
         O13       1.0000    0.49030   0.88030   0.10750   Biso      1.000     O          -0.605229           
         O14       1.0000    0.43360   0.90090   0.85270   Biso      1.000     O          -0.587548           
         O15       1.0000    0.18350   0.50410   0.93040   Biso      1.000     O          -0.6024470000000001           
         O16       1.0000    0.02000   0.55640   0.62610   Biso      1.000     O          -0.687775           
         O17       1.0000    0.19090   0.68390   0.76100   Biso      1.000     O          -0.571196           
         O18       1.0000    0.06640   0.90090   0.35270   Biso      1.000     O          -0.587547           
         O19       1.0000    0.99030   0.11970   0.39250   Biso      1.000     O          -0.605229           
         O20       1.0000    0.50970   0.11970   0.89250   Biso      1.000     O          -0.605229           
         O21       1.0000    0.68350   0.49590   0.56960   Biso      1.000     O          -0.6024470000000001           
         O22       1.0000    0.52000   0.44360   0.87390   Biso      1.000     O          -0.687775           
         O23       1.0000    0.69090   0.31610   0.73900   Biso      1.000     O          -0.571196           
         O24       1.0000    0.00550   0.37690   0.79950   Biso      1.000     O          -0.5717720000000001           
         Pr1       1.0000    0.59845   0.31502   0.06293   Biso      1.000     Pr          2.084247  
         Pr2       1.0000    0.09845   0.68498   0.43707   Biso      1.000     Pr          2.084247  
         Pr3       1.0000    0.40155   0.68498   0.93707   Biso      1.000     Pr          2.084247  
         Pr4       1.0000    0.90155   0.31502   0.56293   Biso      1.000     Pr          2.084247 