
##########################################################################
#               Crystallographic Information Format file
#               Produced by PyCifRW module
#
#  This is a CIF file.  CIF has been adopted by the International
#  Union of Crystallography as the standard for data archiving and
#  transmission.
#
#  For information on this file format, follow the CIF links at
#  http://www.iucr.org
##########################################################################

data_image0

_cell_length_a                          8.884
_cell_length_b                          10.2819
_cell_length_c                          10.2819
_cell_angle_alpha                       79.0926
_cell_angle_beta                        64.4041
_cell_angle_gamma                       64.4041
_symmetry_space_group_name_H-M          'P 1'
_symmetry_int_tables_number             1
loop_
  _symmetry_equiv_pos_as_xyz
         'x, y, z' 
loop_
  _atom_site_label
  _atom_site_occupancy
  _atom_site_fract_x
  _atom_site_fract_y
  _atom_site_fract_z
  _atom_site_thermal_displace_type
  _atom_site_B_iso_or_equiv
  _atom_site_type_symbol
  _atom_site_charge
         C1        1.0000    0.25000   0.72641   0.27359   Biso      1.000     C          0.204866  
         C2        1.0000    0.25000   0.04050   0.95950   Biso      1.000     C          -0.15539  
         C3        1.0000    0.25000   0.83866   0.16134   Biso      1.000     C          0.33308899999999997           
         C4        1.0000    0.93700   0.75000   0.75000   Biso      1.000     C          0.07938400000000001           
         C5        1.0000    0.75000   0.45950   0.54050   Biso      1.000     C          -0.152781           
         C6        1.0000    0.75000   0.66134   0.33866   Biso      1.000     C          0.334364  
         C7        1.0000    0.75000   0.77359   0.22641   Biso      1.000     C          0.208461  
         C8        1.0000    0.26411   0.05599   0.08319   Biso      1.000     C          0.186051  
         C9        1.0000    0.59671   0.58319   0.55599   Biso      1.000     C          0.181342  
         C10       1.0000    0.23589   0.91681   0.94401   Biso      1.000     C          0.186049  
         C11       1.0000    0.90329   0.44401   0.41681   Biso      1.000     C          0.181343  
         C12       1.0000    0.10510   0.75000   0.75000   Biso      1.000     C          0.664647  
         C13       1.0000    0.56300   0.25000   0.25000   Biso      1.000     C          0.079381  
         C14       1.0000    0.39490   0.25000   0.25000   Biso      1.000     C          0.6646449999999999  
         H1        1.0000    0.25000   0.11150   0.88850   Biso      1.000     H          0.144284  
         H2        1.0000    0.75000   0.38850   0.61150   Biso      1.000     H          0.14394   
         H3        1.0000    0.27430   0.13880   0.09540   Biso      1.000     H          0.087447  
         H4        1.0000    0.49150   0.59540   0.63880   Biso      1.000     H          0.08992699999999999           
         H5        1.0000    0.22570   0.90460   0.86120   Biso      1.000     H          0.087447  
         H6        1.0000    0.00850   0.36120   0.40460   Biso      1.000     H          0.08992699999999999           
         La1       1.0000    0.20595   0.54405   0.04405   Biso      1.000     La          1.8522889999999999  
         La2       1.0000    0.29405   0.95595   0.45595   Biso      1.000     La          1.8522900000000002  
         N1        1.0000    0.77982   0.20982   0.30838   Biso      1.000     N          -0.143542           
         N2        1.0000    0.63191   0.18226   0.34780   Biso      1.000     N          -0.305061           
         N3        1.0000    0.26353   0.95428   0.18712   Biso      1.000     N          -0.369562           
         N4        1.0000    0.26581   0.60891   0.46247   Biso      1.000     N          -0.014622999999999999         
         N5        1.0000    0.27560   0.73077   0.38957   Biso      1.000     N          -0.347812           
         N6        1.0000    0.70198   0.80838   0.70982   Biso      1.000     N          -0.147046           
         N7        1.0000    0.83803   0.84780   0.68226   Biso      1.000     N          -0.302476           
         N8        1.0000    0.59507   0.68712   0.45428   Biso      1.000     N          -0.369286           
         N9        1.0000    0.66281   0.96247   0.10891   Biso      1.000     N          -0.015916999999999997         
         N10       1.0000    0.60406   0.88957   0.23077   Biso      1.000     N          -0.348064           
         N11       1.0000    0.89594   0.76923   0.11043   Biso      1.000     N          -0.348087           
         N12       1.0000    0.86809   0.65220   0.81774   Biso      1.000     N          -0.305096           
         N13       1.0000    0.23647   0.81288   0.04572   Biso      1.000     N          -0.369558           
         N14       1.0000    0.23419   0.53753   0.39109   Biso      1.000     N          -0.01457  
         N15       1.0000    0.22440   0.61043   0.26923   Biso      1.000     N          -0.347817           
         N16       1.0000    0.79802   0.29018   0.19162   Biso      1.000     N          -0.146994           
         N17       1.0000    0.66197   0.31774   0.15220   Biso      1.000     N          -0.302483           
         N18       1.0000    0.90493   0.54572   0.31288   Biso      1.000     N          -0.369292           
         N19       1.0000    0.83719   0.89109   0.03753   Biso      1.000     N          -0.015861           
         N20       1.0000    0.72018   0.69162   0.79018   Biso      1.000     N          -0.143466           
         O1        1.0000    0.15859   0.84540   0.67882   Biso      1.000     O          -0.65479  
         O2        1.0000    0.34141   0.32118   0.15460   Biso      1.000     O          -0.654782           
         O3        1.0000    0.18281   0.65460   0.82118   Biso      1.000     O          -0.653406           
         O4        1.0000    0.31719   0.17882   0.34540   Biso      1.000     O          -0.653413 