
##########################################################################
#               Crystallographic Information Format file
#               Produced by PyCifRW module
#
#  This is a CIF file.  CIF has been adopted by the International
#  Union of Crystallography as the standard for data archiving and
#  transmission.
#
#  For information on this file format, follow the CIF links at
#  http://www.iucr.org
##########################################################################

data_image0

_cell_length_a                          10.1916
_cell_length_b                          16.422
_cell_length_c                          15.5624
_cell_angle_alpha                       90
_cell_angle_beta                        107.073
_cell_angle_gamma                       90
_symmetry_space_group_name_H-M          'P 1'
_symmetry_int_tables_number             1
loop_
  _symmetry_equiv_pos_as_xyz
         'x, y, z' 
loop_
  _atom_site_label
  _atom_site_occupancy
  _atom_site_fract_x
  _atom_site_fract_y
  _atom_site_fract_z
  _atom_site_thermal_displace_type
  _atom_site_B_iso_or_equiv
  _atom_site_type_symbol
  _atom_site_charge
         C1        1.0000    0.10650   0.46610   0.35670   Biso      1.000     C          0.075512  
         C2        1.0000    0.23250   0.90350   0.81040   Biso      1.000     C          0.565974  
         C3        1.0000    0.91540   0.42060   0.23080   Biso      1.000     C          0.0020870000000000003         
         C4        1.0000    0.33100   0.55950   0.57200   Biso      1.000     C          -0.154646           
         C5        1.0000    0.76750   0.40350   0.18960   Biso      1.000     C          0.565974  
         C6        1.0000    0.96790   0.45020   0.31820   Biso      1.000     C          -0.15425  
         C7        1.0000    0.66900   0.05950   0.42800   Biso      1.000     C          -0.154646           
         C8        1.0000    0.33350   0.54510   0.73370   Biso      1.000     C          0.082628  
         C9        1.0000    0.27480   0.54270   0.48080   Biso      1.000     C          -0.14057999999999998          
         C10       1.0000    0.08460   0.92060   0.76920   Biso      1.000     C          0.002088  
         C11       1.0000    0.39410   0.62090   0.76330   Biso      1.000     C          -0.153226           
         C12       1.0000    0.80460   0.95200   0.69550   Biso      1.000     C          -0.155646           
         C13       1.0000    0.33320   0.48590   0.79810   Biso      1.000     C          -0.1654   
         C14       1.0000    0.99220   0.90470   0.81950   Biso      1.000     C          -0.14064400000000002          
         C15       1.0000    0.16100   0.49140   0.45120   Biso      1.000     C          0.077348  
         C16       1.0000    0.52350   0.71560   0.88450   Biso      1.000     C          0.611111  
         C17       1.0000    0.15620   0.48030   0.60520   Biso      1.000     C          -0.147419           
         C18       1.0000    0.89350   0.96610   0.64330   Biso      1.000     C          0.075512  
         C19       1.0000    0.45640   0.63440   0.85370   Biso      1.000     C          -0.017979           
         C20       1.0000    0.10030   0.46210   0.51510   Biso      1.000     C          -0.145616           
         C21       1.0000    0.00780   0.40470   0.18050   Biso      1.000     C          -0.14064400000000002          
         C22       1.0000    0.89970   0.96210   0.48490   Biso      1.000     C          -0.145616           
         C23       1.0000    0.85290   0.92140   0.78290   Biso      1.000     C          -0.038038999999999996         
         C24       1.0000    0.03210   0.95020   0.68180   Biso      1.000     C          -0.15425  
         C25       1.0000    0.54360   0.13440   0.14630   Biso      1.000     C          -0.017985           
         C26       1.0000    0.60940   0.93640   0.04260   Biso      1.000     C          0.641574  
         C27       1.0000    0.84380   0.98030   0.39480   Biso      1.000     C          -0.147419           
         C28       1.0000    0.47650   0.21560   0.11550   Biso      1.000     C          0.611112  
         C29       1.0000    0.83900   0.99140   0.54880   Biso      1.000     C          0.077348  
         C30       1.0000    0.60560   0.99980   0.11220   Biso      1.000     C          -0.021856999999999998         
         C31       1.0000    0.66680   0.98590   0.20190   Biso      1.000     C          -0.165393           
         C32       1.0000    0.72700   0.02940   0.36440   Biso      1.000     C          0.065647  
         C33       1.0000    0.60590   0.12090   0.23670   Biso      1.000     C          -0.153221           
         C34       1.0000    0.14710   0.42140   0.21710   Biso      1.000     C          -0.038038999999999996         
         C35       1.0000    0.75250   0.90200   0.83460   Biso      1.000     C          0.628843  
         C36       1.0000    0.66650   0.04510   0.26630   Biso      1.000     C          0.082626  
         C37       1.0000    0.39060   0.43640   0.95740   Biso      1.000     C          0.641573  
         C38       1.0000    0.39440   0.49980   0.88780   Biso      1.000     C          -0.02185  
         C39       1.0000    0.27300   0.52940   0.63560   Biso      1.000     C          0.065647  
         C40       1.0000    0.24750   0.40200   0.16540   Biso      1.000     C          0.628843  
         C41       1.0000    0.45830   0.57460   0.91790   Biso      1.000     C          -0.12635  
         C42       1.0000    0.54170   0.07460   0.08210   Biso      1.000     C          -0.126349           
         C43       1.0000    0.19540   0.45200   0.30450   Biso      1.000     C          -0.155646           
         C44       1.0000    0.72520   0.04270   0.51920   Biso      1.000     C          -0.14057999999999998          
         H1        1.0000    0.49950   0.08400   0.02130   Biso      1.000     H          0.137344  
         H2        1.0000    0.02170   0.43010   0.49670   Biso      1.000     H          0.12301199999999998           
         H3        1.0000    0.59070   0.09180   0.40950   Biso      1.000     H          0.13046300000000002           
         H4        1.0000    0.02450   0.88300   0.87710   Biso      1.000     H          0.11849900000000001           
         H5        1.0000    0.90850   0.78430   0.06060   Biso      1.000     H          0.404826  
         H6        1.0000    0.09220   0.95960   0.64800   Biso      1.000     H          0.12249700000000001           
         H7        1.0000    0.68670   0.06580   0.56080   Biso      1.000     H          0.12017699999999999           
         H8        1.0000    0.60780   0.16200   0.27810   Biso      1.000     H          0.134913  
         H9        1.0000    0.70930   0.93610   0.22020   Biso      1.000     H          0.12231900000000001           
         H10       1.0000    0.88480   0.95950   0.35340   Biso      1.000     H          0.113693  
         H11       1.0000    0.71160   0.96340   0.67150   Biso      1.000     H          0.12523800000000002           
         H12       1.0000    0.83760   0.79700   0.12180   Biso      1.000     H          0.456895  
         H13       1.0000    0.97830   0.93010   0.50330   Biso      1.000     H          0.12301199999999998           
         H14       1.0000    0.97550   0.38300   0.12290   Biso      1.000     H          0.11849900000000001           
         H15       1.0000    0.28840   0.46340   0.32850   Biso      1.000     H          0.12523800000000002           
         H16       1.0000    0.16240   0.29700   0.87820   Biso      1.000     H          0.456895  
         H17       1.0000    0.40930   0.59180   0.59050   Biso      1.000     H          0.13046300000000002           
         H18       1.0000    0.90780   0.45960   0.35200   Biso      1.000     H          0.12249700000000001           
         H19       1.0000    0.31330   0.56580   0.43920   Biso      1.000     H          0.12017699999999999           
         H20       1.0000    0.39220   0.66200   0.72190   Biso      1.000     H          0.134913  
         H21       1.0000    0.29070   0.43610   0.77980   Biso      1.000     H          0.12231900000000001           
         H22       1.0000    0.11520   0.45950   0.64660   Biso      1.000     H          0.113693  
         H23       1.0000    0.09150   0.28430   0.93940   Biso      1.000     H          0.404826  
         H24       1.0000    0.50050   0.58400   0.97870   Biso      1.000     H          0.137344  
         O1        1.0000    0.59740   0.72151   0.96410   Biso      1.000     O          -0.553662           
         O2        1.0000    0.72710   0.36330   0.11942   Biso      1.000     O          -0.563359           
         O3        1.0000    0.20100   0.37106   0.09068   Biso      1.000     O          -0.594066           
         O4        1.0000    0.49840   0.77088   0.82652   Biso      1.000     O          -0.535569           
         O5        1.0000    0.45820   0.45172   0.03661   Biso      1.000     O          -0.5269739999999999           
         O6        1.0000    0.31550   0.37515   0.93189   Biso      1.000     O          -0.620668           
         O7        1.0000    0.68550   0.43216   0.23088   Biso      1.000     O          -0.564569           
         O8        1.0000    0.37160   0.42089   0.20479   Biso      1.000     O          -0.5124810000000001           
         O9        1.0000    0.09470   0.27180   0.88710   Biso      1.000     O          -0.675976           
         O10       1.0000    0.40260   0.22151   0.03590   Biso      1.000     O          -0.553662           
         O11       1.0000    0.62840   0.92089   0.79521   Biso      1.000     O          -0.5124810000000001           
         O12       1.0000    0.31450   0.93216   0.76912   Biso      1.000     O          -0.564569           
         O13       1.0000    0.68450   0.87515   0.06811   Biso      1.000     O          -0.620668           
         O14       1.0000    0.54180   0.95172   0.96339   Biso      1.000     O          -0.5269739999999999           
         O15       1.0000    0.50160   0.27088   0.17348   Biso      1.000     O          -0.535569           
         O16       1.0000    0.79900   0.87106   0.90932   Biso      1.000     O          -0.594066           
         O17       1.0000    0.27290   0.86330   0.88058   Biso      1.000     O          -0.563359           
         O18       1.0000    0.90530   0.77180   0.11290   Biso      1.000     O          -0.675976           
         Zn1       1.0000    0.48825   0.88804   0.85318   Biso      1.000     Zn          0.927114  
         Zn2       1.0000    0.76448   0.79204   0.99845   Biso      1.000     Zn          0.9212540000000001  
         Zn3       1.0000    0.23552   0.29204   0.00155   Biso      1.000     Zn          0.9212540000000001  
         Zn4       1.0000    0.51175   0.38804   0.14682   Biso      1.000     Zn          0.927114 