
##########################################################################
#               Crystallographic Information Format file
#               Produced by PyCifRW module
#
#  This is a CIF file.  CIF has been adopted by the International
#  Union of Crystallography as the standard for data archiving and
#  transmission.
#
#  For information on this file format, follow the CIF links at
#  http://www.iucr.org
##########################################################################

data_image0

_cell_length_a                          18.416
_cell_length_b                          10.154
_cell_length_c                          27.01
_cell_angle_alpha                       90
_cell_angle_beta                        90
_cell_angle_gamma                       90
_symmetry_space_group_name_H-M          'P 1'
_symmetry_int_tables_number             1
loop_
  _symmetry_equiv_pos_as_xyz
         'x, y, z' 
loop_
  _atom_site_label
  _atom_site_occupancy
  _atom_site_fract_x
  _atom_site_fract_y
  _atom_site_fract_z
  _atom_site_thermal_displace_type
  _atom_site_B_iso_or_equiv
  _atom_site_type_symbol
  _atom_site_charge
         C1        1.0000    0.33170   0.58010   0.93620   Biso      1.000     C          0.562973  
         C2        1.0000    0.16900   0.83510   0.44200   Biso      1.000     C          -0.127628           
         C3        1.0000    0.13190   0.80120   0.28460   Biso      1.000     C          0.081243  
         C4        1.0000    0.13880   0.78480   0.04430   Biso      1.000     C          -0.014458000000000002         
         C5        1.0000    0.07750   0.68380   0.21570   Biso      1.000     C          -0.14871199999999998          
         C6        1.0000    0.09520   0.76420   0.12790   Biso      1.000     C          0.091435  
         C7        1.0000    0.14290   0.88220   0.20140   Biso      1.000     C          -0.152698           
         C8        1.0000    0.94880   0.64920   0.03850   Biso      1.000     C          0.628868  
         C9        1.0000    0.10590   0.78120   0.18270   Biso      1.000     C          0.07078   
         C10       1.0000    0.15960   0.88970   0.25290   Biso      1.000     C          -0.142084           
         C11       1.0000    0.14890   0.79920   0.09640   Biso      1.000     C          -0.188778           
         C12       1.0000    0.02950   0.71360   0.10790   Biso      1.000     C          -0.156886           
         C13       1.0000    0.07480   0.74360   0.02480   Biso      1.000     C          -0.10831800000000001          
         C14       1.0000    0.17060   0.58920   0.45310   Biso      1.000     C          0.6188359999999999  
         C15       1.0000    0.34800   0.43620   0.86270   Biso      1.000     C          -0.149674           
         C16       1.0000    0.33750   0.21230   0.92070   Biso      1.000     C          -0.019834           
         C17       1.0000    0.35440   0.31360   0.84010   Biso      1.000     C          0.068472  
         C18       1.0000    0.29560   0.31210   0.51050   Biso      1.000     C          0.570669  
         C19       1.0000    0.34940   0.19950   0.86890   Biso      1.000     C          -0.170522           
         C20       1.0000    0.41010   0.19900   0.76600   Biso      1.000     C          -0.133046           
         C21       1.0000    0.33910   0.45020   0.91310   Biso      1.000     C          0.001645  
         C22       1.0000    0.32940   0.08920   0.95310   Biso      1.000     C          0.618837  
         C23       1.0000    0.33100   0.33510   0.94200   Biso      1.000     C          -0.127624           
         C24       1.0000    0.36810   0.30120   0.78460   Biso      1.000     C          0.08124400000000001           
         C25       1.0000    0.36120   0.28480   0.54430   Biso      1.000     C          -0.014458000000000002         
         C26       1.0000    0.42250   0.18380   0.71570   Biso      1.000     C          -0.14871099999999998          
         C27       1.0000    0.40480   0.26420   0.62790   Biso      1.000     C          0.091435  
         C28       1.0000    0.48240   0.20360   0.55790   Biso      1.000     C          -0.006706999999999999         
         C29       1.0000    0.16090   0.95020   0.41310   Biso      1.000     C          0.0016420000000000002         
         C30       1.0000    0.08990   0.69900   0.26600   Biso      1.000     C          -0.133044           
         C31       1.0000    0.15060   0.69950   0.36890   Biso      1.000     C          -0.170524           
         C32       1.0000    0.84800   0.06380   0.86270   Biso      1.000     C          -0.149674           
         C33       1.0000    0.98240   0.29640   0.55790   Biso      1.000     C          -0.006706999999999999         
         C34       1.0000    0.83750   0.28770   0.92070   Biso      1.000     C          -0.019834           
         C35       1.0000    0.85440   0.18640   0.84010   Biso      1.000     C          0.068473  
         C36       1.0000    0.79560   0.18790   0.51050   Biso      1.000     C          0.570669  
         C37       1.0000    0.84940   0.30050   0.86890   Biso      1.000     C          -0.170523           
         C38       1.0000    0.91010   0.30100   0.76600   Biso      1.000     C          -0.133045           
         C39       1.0000    0.83910   0.04980   0.91310   Biso      1.000     C          0.0016460000000000001         
         C40       1.0000    0.82940   0.41080   0.95310   Biso      1.000     C          0.618837  
         C41       1.0000    0.83100   0.16490   0.94200   Biso      1.000     C          -0.127624           
         C42       1.0000    0.86810   0.19880   0.78460   Biso      1.000     C          0.081243  
         C43       1.0000    0.86120   0.21520   0.54430   Biso      1.000     C          -0.014458000000000002         
         C44       1.0000    0.92250   0.31620   0.71570   Biso      1.000     C          -0.14871099999999998          
         C45       1.0000    0.90480   0.23580   0.62790   Biso      1.000     C          0.091435  
         C46       1.0000    0.85710   0.11780   0.70140   Biso      1.000     C          -0.152698           
         C47       1.0000    0.05120   0.35080   0.53850   Biso      1.000     C          0.628869  
         C48       1.0000    0.89410   0.21880   0.68270   Biso      1.000     C          0.07078   
         C49       1.0000    0.84040   0.11030   0.75290   Biso      1.000     C          -0.142084           
         C50       1.0000    0.85110   0.20080   0.59640   Biso      1.000     C          -0.188778           
         C51       1.0000    0.97050   0.28640   0.60790   Biso      1.000     C          -0.156879           
         C52       1.0000    0.92520   0.25640   0.52480   Biso      1.000     C          -0.10831700000000001          
         C53       1.0000    0.16830   0.08010   0.43620   Biso      1.000     C          0.562973  
         C54       1.0000    0.15200   0.93620   0.36270   Biso      1.000     C          -0.14967  
         C55       1.0000    0.01760   0.70360   0.05790   Biso      1.000     C          -0.006701           
         C56       1.0000    0.16250   0.71230   0.42070   Biso      1.000     C          -0.019829           
         C57       1.0000    0.14560   0.81360   0.34010   Biso      1.000     C          0.068473  
         C58       1.0000    0.20440   0.81210   0.01050   Biso      1.000     C          0.570669  
         C59       1.0000    0.35710   0.38220   0.70140   Biso      1.000     C          -0.152698           
         C60       1.0000    0.55120   0.14920   0.53850   Biso      1.000     C          0.628869  
         C61       1.0000    0.83170   0.91990   0.93620   Biso      1.000     C          0.562973  
         C62       1.0000    0.66090   0.54980   0.41310   Biso      1.000     C          0.001641  
         C63       1.0000    0.70440   0.68790   0.01050   Biso      1.000     C          0.570669  
         C64       1.0000    0.59520   0.73580   0.12790   Biso      1.000     C          0.091437  
         C65       1.0000    0.57750   0.81620   0.21570   Biso      1.000     C          -0.14870999999999998          
         C66       1.0000    0.63880   0.71520   0.04430   Biso      1.000     C          -0.014458000000000002         
         C67       1.0000    0.63190   0.69880   0.28460   Biso      1.000     C          0.081243  
         C68       1.0000    0.66900   0.66490   0.44200   Biso      1.000     C          -0.127628           
         C69       1.0000    0.44880   0.85080   0.03850   Biso      1.000     C          0.628869  
         C70       1.0000    0.67060   0.91080   0.45310   Biso      1.000     C          0.6188359999999999  
         C71       1.0000    0.39410   0.28120   0.68270   Biso      1.000     C          0.07078   
         C72       1.0000    0.58990   0.80100   0.26600   Biso      1.000     C          -0.133044           
         C73       1.0000    0.65200   0.56380   0.36270   Biso      1.000     C          -0.149669           
         C74       1.0000    0.51760   0.79640   0.05790   Biso      1.000     C          -0.006706999999999999         
         C75       1.0000    0.66250   0.78770   0.42070   Biso      1.000     C          -0.019829           
         C76       1.0000    0.64560   0.68640   0.34010   Biso      1.000     C          0.068472  
         C77       1.0000    0.66830   0.41990   0.43620   Biso      1.000     C          0.562974  
         C78       1.0000    0.60590   0.71880   0.18270   Biso      1.000     C          0.070754  
         C79       1.0000    0.64290   0.61780   0.20140   Biso      1.000     C          -0.15267  
         C80       1.0000    0.52950   0.78640   0.10790   Biso      1.000     C          -0.15688  
         C81       1.0000    0.34040   0.38970   0.75290   Biso      1.000     C          -0.142084           
         C82       1.0000    0.35110   0.29920   0.59640   Biso      1.000     C          -0.188778           
         C83       1.0000    0.57480   0.75640   0.02480   Biso      1.000     C          -0.10831700000000001          
         C84       1.0000    0.47050   0.21360   0.60790   Biso      1.000     C          -0.156879           
         C85       1.0000    0.42520   0.24360   0.52480   Biso      1.000     C          -0.10831700000000001          
         C86       1.0000    0.64890   0.70080   0.09640   Biso      1.000     C          -0.188779           
         C87       1.0000    0.65060   0.80050   0.36890   Biso      1.000     C          -0.170523           
         C88       1.0000    0.65960   0.61030   0.25290   Biso      1.000     C          -0.14208800000000002          
         H1        1.0000    0.93200   0.25890   0.49070   Biso      1.000     H          0.142974  
         H2        1.0000    0.56940   0.86110   0.28790   Biso      1.000     H          0.118802  
         H3        1.0000    0.85380   0.38330   0.85450   Biso      1.000     H          0.146964  
         H4        1.0000    0.93060   0.36110   0.78790   Biso      1.000     H          0.118802  
         H5        1.0000    0.80760   0.16740   0.60870   Biso      1.000     H          0.09598200000000001           
         H6        1.0000    0.17870   0.84230   0.47570   Biso      1.000     H          0.126116  
         H7        1.0000    0.69240   0.66740   0.10870   Biso      1.000     H          0.09598200000000001           
         H8        1.0000    0.56800   0.75890   0.99070   Biso      1.000     H          0.142974  
         H9        1.0000    0.00680   0.31370   0.62960   Biso      1.000     H          0.11930299999999999           
         H10       1.0000    0.82130   0.15770   0.97570   Biso      1.000     H          0.126116  
         H11       1.0000    0.06940   0.63890   0.28790   Biso      1.000     H          0.118802  
         H12       1.0000    0.67870   0.65770   0.47570   Biso      1.000     H          0.126116  
         H13       1.0000    0.14620   0.61670   0.35450   Biso      1.000     H          0.146964  
         H14       1.0000    0.68980   0.54380   0.26450   Biso      1.000     H          0.11941600000000001           
         H15       1.0000    0.94850   0.38790   0.70380   Biso      1.000     H          0.11951099999999999           
         H16       1.0000    0.49320   0.81370   0.12960   Biso      1.000     H          0.11930299999999999           
         H17       1.0000    0.55150   0.88790   0.20380   Biso      1.000     H          0.11951099999999999           
         H18       1.0000    0.84180   0.05060   0.68040   Biso      1.000     H          0.10245699999999999           
         H19       1.0000    0.15020   0.01140   0.34310   Biso      1.000     H          0.12364100000000001           
         H20       1.0000    0.65820   0.55060   0.18040   Biso      1.000     H          0.10245499999999999           
         H21       1.0000    0.81020   0.04380   0.76450   Biso      1.000     H          0.11941500000000001           
         H22       1.0000    0.31020   0.45620   0.76450   Biso      1.000     H          0.11941600000000001           
         H23       1.0000    0.05150   0.61210   0.20380   Biso      1.000     H          0.11951099999999999           
         H24       1.0000    0.30760   0.33260   0.60870   Biso      1.000     H          0.09598200000000001           
         H25       1.0000    0.44850   0.11210   0.70380   Biso      1.000     H          0.11951099999999999           
         H26       1.0000    0.50680   0.18630   0.62960   Biso      1.000     H          0.11930299999999999           
         H27       1.0000    0.32130   0.34230   0.97570   Biso      1.000     H          0.126116  
         H28       1.0000    0.43200   0.24110   0.49070   Biso      1.000     H          0.142974  
         H29       1.0000    0.43060   0.13890   0.78790   Biso      1.000     H          0.118802  
         H30       1.0000    0.35380   0.11670   0.85450   Biso      1.000     H          0.146963  
         H31       1.0000    0.34980   0.51140   0.84310   Biso      1.000     H          0.12364100000000001           
         H32       1.0000    0.84980   0.98860   0.84310   Biso      1.000     H          0.12364100000000001           
         H33       1.0000    0.64620   0.88330   0.35450   Biso      1.000     H          0.146964  
         H34       1.0000    0.34180   0.44940   0.68040   Biso      1.000     H          0.10245699999999999           
         H35       1.0000    0.15820   0.94940   0.18040   Biso      1.000     H          0.102458  
         H36       1.0000    0.18980   0.95620   0.26450   Biso      1.000     H          0.11941500000000001           
         H37       1.0000    0.65020   0.48860   0.34310   Biso      1.000     H          0.12364100000000001           
         H38       1.0000    0.19240   0.83260   0.10870   Biso      1.000     H          0.09598200000000001           
         H39       1.0000    0.06800   0.74110   0.99070   Biso      1.000     H          0.142974  
         H40       1.0000    0.99320   0.68630   0.12960   Biso      1.000     H          0.119304  
         O1        1.0000    0.15890   0.18190   0.41033   Biso      1.000     O          -0.502554           
         O2        1.0000    0.56940   0.18850   0.49415   Biso      1.000     O          -0.541269           
         O3        1.0000    0.23510   0.34460   0.52915   Biso      1.000     O          -0.565499           
         O4        1.0000    0.33120   0.97890   0.92999   Biso      1.000     O          -0.5166890000000001           
         O5        1.0000    0.34110   0.68190   0.91033   Biso      1.000     O          -0.502555           
         O6        1.0000    0.19740   0.79160   0.96517   Biso      1.000     O          -0.46248999999999996          
         O7        1.0000    0.32260   0.10670   0.99809   Biso      1.000     O          -0.573105           
         O8        1.0000    0.69740   0.70840   0.96517   Biso      1.000     O          -0.46248999999999996          
         O9        1.0000    0.67740   0.89330   0.49809   Biso      1.000     O          -0.573104           
         O10       1.0000    0.30260   0.29160   0.46517   Biso      1.000     O          -0.46248999999999996          
         O11       1.0000    0.67960   0.41120   0.48237   Biso      1.000     O          -0.5307430000000001           
         O12       1.0000    0.32040   0.58880   0.98237   Biso      1.000     O          -0.5307430000000001           
         O13       1.0000    0.17960   0.08880   0.48237   Biso      1.000     O          -0.530742           
         O14       1.0000    0.58700   0.07780   0.56578   Biso      1.000     O          -0.5593640000000001           
         O15       1.0000    0.41300   0.92220   0.06578   Biso      1.000     O          -0.5593640000000001           
         O16       1.0000    0.16880   0.47890   0.42999   Biso      1.000     O          -0.516688           
         O17       1.0000    0.26490   0.84460   0.02915   Biso      1.000     O          -0.5655020000000001           
         O18       1.0000    0.93060   0.68850   0.99415   Biso      1.000     O          -0.541269           
         O19       1.0000    0.43060   0.81150   0.99415   Biso      1.000     O          -0.541269           
         O20       1.0000    0.76490   0.65540   0.02915   Biso      1.000     O          -0.5655   
         O21       1.0000    0.08700   0.42220   0.56578   Biso      1.000     O          -0.559362           
         O22       1.0000    0.06940   0.31150   0.49415   Biso      1.000     O          -0.541269           
         O23       1.0000    0.17740   0.60670   0.49809   Biso      1.000     O          -0.573103           
         O24       1.0000    0.73510   0.15540   0.52915   Biso      1.000     O          -0.565501           
         O25       1.0000    0.84110   0.81810   0.91033   Biso      1.000     O          -0.502554           
         O26       1.0000    0.82040   0.91120   0.98237   Biso      1.000     O          -0.5307430000000001           
         O27       1.0000    0.91300   0.57780   0.06578   Biso      1.000     O          -0.559363           
         O28       1.0000    0.65890   0.31810   0.41033   Biso      1.000     O          -0.502555           
         O29       1.0000    0.82260   0.39330   0.99809   Biso      1.000     O          -0.573104           
         O30       1.0000    0.80260   0.20840   0.46517   Biso      1.000     O          -0.46248999999999996          
         O31       1.0000    0.83120   0.52110   0.92999   Biso      1.000     O          -0.516688           
         O32       1.0000    0.66880   0.02110   0.42999   Biso      1.000     O          -0.5166890000000001           
         Zn1       1.0000    0.68785   0.99096   0.56630   Biso      1.000     Zn          0.927532  
         Zn2       1.0000    0.32834   0.81204   0.96752   Biso      1.000     Zn          0.933425  
         Zn3       1.0000    0.81215   0.49096   0.06630   Biso      1.000     Zn          0.92753   
         Zn4       1.0000    0.67166   0.18796   0.46752   Biso      1.000     Zn          0.933425  
         Zn5       1.0000    0.31215   0.00904   0.06630   Biso      1.000     Zn          0.9275329999999999  
         Zn6       1.0000    0.17166   0.31204   0.46752   Biso      1.000     Zn          0.933425  
         Zn7       1.0000    0.18785   0.50904   0.56630   Biso      1.000     Zn          0.927527  
         Zn8       1.0000    0.82834   0.68796   0.96752   Biso      1.000     Zn          0.933424 