
##########################################################################
#               Crystallographic Information Format file
#               Produced by PyCifRW module
#
#  This is a CIF file.  CIF has been adopted by the International
#  Union of Crystallography as the standard for data archiving and
#  transmission.
#
#  For information on this file format, follow the CIF links at
#  http://www.iucr.org
##########################################################################

data_image0

_cell_length_a                          20.071
_cell_length_b                          9.698
_cell_length_c                          10.986
_cell_angle_alpha                       90
_cell_angle_beta                        90
_cell_angle_gamma                       90
_symmetry_space_group_name_H-M          'P 1'
_symmetry_int_tables_number             1
loop_
  _symmetry_equiv_pos_as_xyz
         'x, y, z' 
loop_
  _atom_site_label
  _atom_site_occupancy
  _atom_site_fract_x
  _atom_site_fract_y
  _atom_site_fract_z
  _atom_site_thermal_displace_type
  _atom_site_B_iso_or_equiv
  _atom_site_type_symbol
  _atom_site_charge
         C1        1.0000    0.27615   0.79820   0.84480   Biso      1.000     C          -0.26021500000000003          
         C2        1.0000    0.35053   0.82700   0.82780   Biso      1.000     C          -0.26349  
         C3        1.0000    0.74553   0.63270   0.45180   Biso      1.000     C          0.352526  
         C4        1.0000    0.25447   0.63270   0.45180   Biso      1.000     C          0.352517  
         C5        1.0000    0.22385   0.70180   0.34480   Biso      1.000     C          -0.260214           
         C6        1.0000    0.13318   0.46460   0.77310   Biso      1.000     C          0.345359  
         C7        1.0000    0.14947   0.67300   0.32780   Biso      1.000     C          -0.263491           
         C8        1.0000    0.86682   0.46460   0.77310   Biso      1.000     C          0.345357  
         C9        1.0000    0.13318   0.53540   0.27310   Biso      1.000     C          0.345357  
         C10       1.0000    0.85053   0.32700   0.82780   Biso      1.000     C          -0.263488           
         C11       1.0000    0.77615   0.29820   0.84480   Biso      1.000     C          -0.26021700000000003          
         C12       1.0000    0.74553   0.36730   0.95180   Biso      1.000     C          0.352526  
         C13       1.0000    0.24553   0.13270   0.45180   Biso      1.000     C          0.352519  
         C14       1.0000    0.36682   0.03540   0.27310   Biso      1.000     C          0.345356  
         C15       1.0000    0.27615   0.20180   0.34480   Biso      1.000     C          -0.26021500000000003          
         C16       1.0000    0.24553   0.86730   0.95180   Biso      1.000     C          0.352512  
         C17       1.0000    0.35053   0.17300   0.32780   Biso      1.000     C          -0.263489           
         C18       1.0000    0.36682   0.96460   0.77310   Biso      1.000     C          0.345357  
         C19       1.0000    0.14947   0.32700   0.82780   Biso      1.000     C          -0.263491           
         C20       1.0000    0.85053   0.67300   0.32780   Biso      1.000     C          -0.263488           
         C21       1.0000    0.77615   0.70180   0.34480   Biso      1.000     C          -0.26021700000000003          
         C22       1.0000    0.00000   0.31760   0.53430   Biso      1.000     C          0.12614   
         C23       1.0000    0.86682   0.53540   0.27310   Biso      1.000     C          0.345358  
         C24       1.0000    0.50000   0.81760   0.53430   Biso      1.000     C          0.126142  
         C25       1.0000    0.00000   0.68240   0.03430   Biso      1.000     C          0.126136  
         C26       1.0000    0.63318   0.03540   0.27310   Biso      1.000     C          0.34536100000000003           
         C27       1.0000    0.75447   0.86730   0.95180   Biso      1.000     C          0.352523  
         C28       1.0000    0.25447   0.36730   0.95180   Biso      1.000     C          0.352512  
         C29       1.0000    0.72385   0.79820   0.84480   Biso      1.000     C          -0.260218           
         C30       1.0000    0.64947   0.17300   0.32780   Biso      1.000     C          -0.263491           
         C31       1.0000    0.64947   0.82700   0.82780   Biso      1.000     C          -0.263491           
         C32       1.0000    0.22385   0.29820   0.84480   Biso      1.000     C          -0.260214           
         C33       1.0000    0.63318   0.96460   0.77310   Biso      1.000     C          0.34536100000000003           
         C34       1.0000    0.72385   0.20180   0.34480   Biso      1.000     C          -0.260218           
         C35       1.0000    0.50000   0.18240   0.03430   Biso      1.000     C          0.126142  
         C36       1.0000    0.75447   0.13270   0.45180   Biso      1.000     C          0.352523  
         H1        1.0000    0.23010   0.19940   0.85280   Biso      1.000     H          0.134139  
         H2        1.0000    0.63080   0.75560   0.77630   Biso      1.000     H          0.13806600000000002           
         H3        1.0000    0.25270   0.17250   0.27200   Biso      1.000     H          0.128026  
         H4        1.0000    0.26990   0.30060   0.35280   Biso      1.000     H          0.134138  
         H5        1.0000    0.87220   0.32060   0.90650   Biso      1.000     H          0.131348  
         H6        1.0000    0.75270   0.32750   0.77200   Biso      1.000     H          0.128027  
         H7        1.0000    0.76990   0.19940   0.85280   Biso      1.000     H          0.134139  
         H8        1.0000    0.24730   0.32750   0.77200   Biso      1.000     H          0.128023  
         H9        1.0000    0.86920   0.25560   0.77630   Biso      1.000     H          0.138062  
         H10       1.0000    0.73010   0.69940   0.85280   Biso      1.000     H          0.134143  
         H11       1.0000    0.74730   0.82750   0.77200   Biso      1.000     H          0.128027  
         H12       1.0000    0.13080   0.25560   0.77630   Biso      1.000     H          0.13806500000000002           
         H13       1.0000    0.00000   0.62610   0.10730   Biso      1.000     H          0.19428   
         H14       1.0000    0.12780   0.32060   0.90650   Biso      1.000     H          0.131352  
         H15       1.0000    0.62780   0.82060   0.90650   Biso      1.000     H          0.13135   
         H16       1.0000    0.36920   0.75560   0.77630   Biso      1.000     H          0.13806   
         H17       1.0000    0.00000   0.61880   0.96620   Biso      1.000     H          0.193147  
         H18       1.0000    0.26990   0.69940   0.85280   Biso      1.000     H          0.13413599999999998           
         H19       1.0000    0.23010   0.80060   0.35280   Biso      1.000     H          0.13414   
         H20       1.0000    0.37220   0.82060   0.90650   Biso      1.000     H          0.131351  
         H21       1.0000    0.76990   0.80060   0.35280   Biso      1.000     H          0.13414   
         H22       1.0000    0.87220   0.67940   0.40650   Biso      1.000     H          0.131352  
         H23       1.0000    0.12780   0.67940   0.40650   Biso      1.000     H          0.131349  
         H24       1.0000    0.13080   0.74440   0.27630   Biso      1.000     H          0.13806600000000002           
         H25       1.0000    0.86920   0.74440   0.27630   Biso      1.000     H          0.138062  
         H26       1.0000    0.63080   0.24440   0.27630   Biso      1.000     H          0.13806600000000002           
         H27       1.0000    0.62780   0.17940   0.40650   Biso      1.000     H          0.131352  
         H28       1.0000    0.73010   0.30060   0.35280   Biso      1.000     H          0.134142  
         H29       1.0000    0.24730   0.67250   0.27200   Biso      1.000     H          0.128025  
         H30       1.0000    0.74730   0.17250   0.27200   Biso      1.000     H          0.128026  
         H31       1.0000    0.50000   0.88120   0.46620   Biso      1.000     H          0.19314   
         H32       1.0000    0.00000   0.37390   0.60730   Biso      1.000     H          0.194277  
         H33       1.0000    0.00000   0.38120   0.46620   Biso      1.000     H          0.193144  
         H34       1.0000    0.50000   0.12610   0.10730   Biso      1.000     H          0.194274  
         H35       1.0000    0.50000   0.11880   0.96620   Biso      1.000     H          0.193139  
         H36       1.0000    0.36920   0.24440   0.27630   Biso      1.000     H          0.138061  
         H37       1.0000    0.37220   0.17940   0.40650   Biso      1.000     H          0.131348  
         H38       1.0000    0.25270   0.82750   0.77200   Biso      1.000     H          0.128023  
         H39       1.0000    0.50000   0.87390   0.60730   Biso      1.000     H          0.194274  
         H40       1.0000    0.75270   0.67250   0.27200   Biso      1.000     H          0.128027  
         N1        1.0000    0.12513   0.48660   0.65480   Biso      1.000     N          -0.294288           
         N2        1.0000    0.11110   0.62310   0.64200   Biso      1.000     N          -0.066451           
         N3        1.0000    0.26083   0.00660   0.49330   Biso      1.000     N          -0.295594           
         N4        1.0000    0.21917   0.98470   0.59040   Biso      1.000     N          -0.075668           
         N5        1.0000    0.11023   0.67930   0.74830   Biso      1.000     N          -0.053997           
         N6        1.0000    0.76083   0.50660   0.49330   Biso      1.000     N          -0.295611           
         N7        1.0000    0.37487   0.01340   0.15480   Biso      1.000     N          -0.29428899999999997          
         N8        1.0000    0.38890   0.87690   0.14200   Biso      1.000     N          -0.06647  
         N9        1.0000    0.38977   0.82070   0.24830   Biso      1.000     N          -0.054002999999999995         
         N10       1.0000    0.37610   0.91960   0.33380   Biso      1.000     N          -0.290431           
         N11       1.0000    0.87487   0.51340   0.15480   Biso      1.000     N          -0.29428699999999997          
         N12       1.0000    0.19657   0.18710   0.51680   Biso      1.000     N          -0.26619899999999996          
         N13       1.0000    0.68061   0.59200   0.60370   Biso      1.000     N          -0.047576           
         N14       1.0000    0.69657   0.68710   0.51680   Biso      1.000     N          -0.266194           
         N15       1.0000    0.87610   0.41960   0.33380   Biso      1.000     N          -0.29041999999999996          
         N16       1.0000    0.88977   0.32070   0.24830   Biso      1.000     N          -0.054028           
         N17       1.0000    0.88890   0.37690   0.14200   Biso      1.000     N          -0.066423           
         N18       1.0000    0.18061   0.09200   0.60370   Biso      1.000     N          -0.047550999999999996         
         N19       1.0000    0.71917   0.48470   0.59040   Biso      1.000     N          -0.075641           
         N20       1.0000    0.12390   0.58040   0.83380   Biso      1.000     N          -0.290421           
         N21       1.0000    0.80343   0.81290   0.01680   Biso      1.000     N          -0.266204           
         N22       1.0000    0.31939   0.40800   0.10370   Biso      1.000     N          -0.047583           
         N23       1.0000    0.37487   0.98660   0.65480   Biso      1.000     N          -0.29428699999999997          
         N24       1.0000    0.38890   0.12310   0.64200   Biso      1.000     N          -0.066467           
         N25       1.0000    0.38977   0.17930   0.74830   Biso      1.000     N          -0.054001           
         N26       1.0000    0.30343   0.31290   0.01680   Biso      1.000     N          -0.26618800000000004          
         N27       1.0000    0.37610   0.08040   0.83380   Biso      1.000     N          -0.290426           
         N28       1.0000    0.19657   0.81290   0.01680   Biso      1.000     N          -0.266205           
         N29       1.0000    0.18061   0.90800   0.10370   Biso      1.000     N          -0.047591           
         N30       1.0000    0.21917   0.01530   0.09040   Biso      1.000     N          -0.075658           
         N31       1.0000    0.26083   0.99340   0.99330   Biso      1.000     N          -0.295592           
         N32       1.0000    0.61110   0.87690   0.14200   Biso      1.000     N          -0.066461           
         N33       1.0000    0.80343   0.18710   0.51680   Biso      1.000     N          -0.26620900000000003          
         N34       1.0000    0.11110   0.37690   0.14200   Biso      1.000     N          -0.066472           
         N35       1.0000    0.11023   0.32070   0.24830   Biso      1.000     N          -0.053999           
         N36       1.0000    0.12390   0.41960   0.33380   Biso      1.000     N          -0.290428           
         N37       1.0000    0.30343   0.68710   0.51680   Biso      1.000     N          -0.266198           
         N38       1.0000    0.31939   0.59200   0.60370   Biso      1.000     N          -0.047570999999999995         
         N39       1.0000    0.28083   0.48470   0.59040   Biso      1.000     N          -0.075648           
         N40       1.0000    0.23917   0.50660   0.49330   Biso      1.000     N          -0.295585           
         N41       1.0000    0.62390   0.91960   0.33380   Biso      1.000     N          -0.290421           
         N42       1.0000    0.62513   0.01340   0.15480   Biso      1.000     N          -0.29427  
         N43       1.0000    0.12513   0.51340   0.15480   Biso      1.000     N          -0.29428000000000004          
         N44       1.0000    0.76083   0.49340   0.99330   Biso      1.000     N          -0.295602           
         N45       1.0000    0.81939   0.09200   0.60370   Biso      1.000     N          -0.047547000000000006         
         N46       1.0000    0.73917   0.00660   0.49330   Biso      1.000     N          -0.295599           
         N47       1.0000    0.28083   0.51530   0.09040   Biso      1.000     N          -0.075655           
         N48       1.0000    0.23917   0.49340   0.99330   Biso      1.000     N          -0.295578           
         N49       1.0000    0.62513   0.98660   0.65480   Biso      1.000     N          -0.294288           
         N50       1.0000    0.61110   0.12310   0.64200   Biso      1.000     N          -0.06645  
         N51       1.0000    0.61023   0.17930   0.74830   Biso      1.000     N          -0.054005           
         N52       1.0000    0.62390   0.08040   0.83380   Biso      1.000     N          -0.29041500000000003          
         N53       1.0000    0.81939   0.90800   0.10370   Biso      1.000     N          -0.047543           
         N54       1.0000    0.78083   0.01530   0.09040   Biso      1.000     N          -0.07566200000000001          
         N55       1.0000    0.71917   0.51530   0.09040   Biso      1.000     N          -0.075675           
         N56       1.0000    0.61023   0.82070   0.24830   Biso      1.000     N          -0.053988999999999995         
         N57       1.0000    0.78083   0.98470   0.59040   Biso      1.000     N          -0.075661           
         N58       1.0000    0.87487   0.48660   0.65480   Biso      1.000     N          -0.29428699999999997          
         N59       1.0000    0.88890   0.62310   0.64200   Biso      1.000     N          -0.066464           
         N60       1.0000    0.88977   0.67930   0.74830   Biso      1.000     N          -0.05401  
         N61       1.0000    0.87610   0.58040   0.83380   Biso      1.000     N          -0.29042199999999996          
         N62       1.0000    0.69657   0.31290   0.01680   Biso      1.000     N          -0.266206           
         N63       1.0000    0.68061   0.40800   0.10370   Biso      1.000     N          -0.047532           
         N64       1.0000    0.73917   0.99340   0.99330   Biso      1.000     N          -0.295583           
         O1        1.0000    0.44493   0.75930   0.53200   Biso      1.000     O          -0.261809           
         O2        1.0000    0.44493   0.24070   0.03200   Biso      1.000     O          -0.261811           
         O3        1.0000    0.55507   0.24070   0.03200   Biso      1.000     O          -0.261899           
         O4        1.0000    0.94493   0.25930   0.53200   Biso      1.000     O          -0.26188  
         O5        1.0000    0.55507   0.75930   0.53200   Biso      1.000     O          -0.261891           
         O6        1.0000    0.05507   0.74070   0.03200   Biso      1.000     O          -0.261816           
         O7        1.0000    0.05507   0.25930   0.53200   Biso      1.000     O          -0.261824           
         O8        1.0000    0.94493   0.74070   0.03200   Biso      1.000     O          -0.261874           
         Zn1       1.0000    0.85256   0.36779   0.50703   Biso      1.000     Zn          0.6895    
         Zn2       1.0000    0.35256   0.13221   0.00703   Biso      1.000     Zn          0.6894939999999999  
         Zn3       1.0000    0.85256   0.63221   0.00703   Biso      1.000     Zn          0.689499  
         Zn4       1.0000    0.64744   0.13221   0.00703   Biso      1.000     Zn          0.689519  
         Zn5       1.0000    0.35256   0.86779   0.50703   Biso      1.000     Zn          0.6894899999999999  
         Zn6       1.0000    0.14744   0.63221   0.00703   Biso      1.000     Zn          0.689501  
         Zn7       1.0000    0.14744   0.36779   0.50703   Biso      1.000     Zn          0.689497  
         Zn8       1.0000    0.64744   0.86779   0.50703   Biso      1.000     Zn          0.689517 