
##########################################################################
#               Crystallographic Information Format file
#               Produced by PyCifRW module
#
#  This is a CIF file.  CIF has been adopted by the International
#  Union of Crystallography as the standard for data archiving and
#  transmission.
#
#  For information on this file format, follow the CIF links at
#  http://www.iucr.org
##########################################################################

data_image0

_cell_length_a                          10.1919
_cell_length_b                          13.528
_cell_length_c                          13.528
_cell_angle_alpha                       104.002
_cell_angle_beta                        96.181
_cell_angle_gamma                       83.819
_symmetry_space_group_name_H-M          'P 1'
_symmetry_int_tables_number             1
loop_
  _symmetry_equiv_pos_as_xyz
         'x, y, z' 
loop_
  _atom_site_label
  _atom_site_occupancy
  _atom_site_fract_x
  _atom_site_fract_y
  _atom_site_fract_z
  _atom_site_thermal_displace_type
  _atom_site_B_iso_or_equiv
  _atom_site_type_symbol
  _atom_site_charge
         C1        1.0000    0.79220   0.07910   0.62570   Biso      1.000     C          -0.137357           
         C2        1.0000    0.57660   0.85750   0.58050   Biso      1.000     C          0.650447  
         C3        1.0000    0.68600   0.92730   0.62790   Biso      1.000     C          -0.300642           
         C4        1.0000    0.18400   0.84000   0.43020   Biso      1.000     C          -0.106348           
         C5        1.0000    0.93820   0.83850   0.36890   Biso      1.000     C          -0.079765           
         C6        1.0000    0.89190   0.88580   0.47400   Biso      1.000     C          -0.23698699999999998          
         C7        1.0000    0.75510   0.94250   0.46210   Biso      1.000     C          -0.09833099999999999          
         C8        1.0000    0.34320   0.37390   0.59830   Biso      1.000     C          0.6451720000000001  
         C9        1.0000    0.43670   0.42120   0.68780   Biso      1.000     C          -0.269251           
         C10       1.0000    0.92340   0.58050   0.85750   Biso      1.000     C          0.650981  
         C11       1.0000    0.81400   0.62790   0.92730   Biso      1.000     C          -0.299705           
         C12       1.0000    0.70780   0.62570   0.07910   Biso      1.000     C          -0.137444           
         C13       1.0000    0.31600   0.43020   0.84000   Biso      1.000     C          -0.106369           
         C14       1.0000    0.56180   0.36890   0.83850   Biso      1.000     C          -0.07972699999999999          
         C15       1.0000    0.60810   0.47400   0.88580   Biso      1.000     C          -0.23714699999999997          
         C16       1.0000    0.74490   0.46210   0.94250   Biso      1.000     C          -0.098341           
         C17       1.0000    0.15680   0.59830   0.37390   Biso      1.000     C          0.645111  
         C18       1.0000    0.25510   0.53790   0.05750   Biso      1.000     C          -0.0984   
         C19       1.0000    0.06330   0.68780   0.42120   Biso      1.000     C          -0.269042           
         C20       1.0000    0.43820   0.63110   0.16150   Biso      1.000     C          -0.079748           
         C21       1.0000    0.84320   0.40170   0.62610   Biso      1.000     C          0.644084  
         C22       1.0000    0.93670   0.31220   0.57880   Biso      1.000     C          -0.268804           
         C23       1.0000    0.42340   0.14250   0.41950   Biso      1.000     C          0.650796  
         C24       1.0000    0.31400   0.07270   0.37210   Biso      1.000     C          -0.300196           
         C25       1.0000    0.20780   0.92090   0.37430   Biso      1.000     C          -0.137374           
         C26       1.0000    0.81600   0.16000   0.56980   Biso      1.000     C          -0.10631900000000001          
         C27       1.0000    0.06180   0.16150   0.63110   Biso      1.000     C          -0.079775           
         C28       1.0000    0.39190   0.52600   0.11420   Biso      1.000     C          -0.23723000000000002          
         C29       1.0000    0.10810   0.11420   0.52600   Biso      1.000     C          -0.237229           
         C30       1.0000    0.65680   0.62610   0.40170   Biso      1.000     C          0.644266  
         C31       1.0000    0.56330   0.57880   0.31220   Biso      1.000     C          -0.26912800000000003          
         C32       1.0000    0.07660   0.41950   0.14250   Biso      1.000     C          0.65081   
         C33       1.0000    0.18600   0.37210   0.07270   Biso      1.000     C          -0.300156           
         C34       1.0000    0.29220   0.37430   0.92090   Biso      1.000     C          -0.13738499999999998          
         C35       1.0000    0.68400   0.56980   0.16000   Biso      1.000     C          -0.106333           
         C36       1.0000    0.24490   0.05750   0.53790   Biso      1.000     C          -0.09839400000000001          
         H1        1.0000    0.04590   0.06700   0.48680   Biso      1.000     H          0.095467  
         H2        1.0000    0.83750   0.12720   0.50080   Biso      1.000     H          0.11686099999999999           
         H3        1.0000    0.12670   0.20610   0.67050   Biso      1.000     H          0.122629  
         H4        1.0000    0.05560   0.10770   0.66610   Biso      1.000     H          0.097401  
         H5        1.0000    0.12300   0.95450   0.35550   Biso      1.000     H          0.067911  
         H6        1.0000    0.02660   0.33240   0.58980   Biso      1.000     H          0.15213800000000002           
         H7        1.0000    0.23170   0.11430   0.36370   Biso      1.000     H          0.041337  
         H8        1.0000    0.33600   0.03390   0.30490   Biso      1.000     H          0.128028  
         H9        1.0000    0.91360   0.29240   0.50560   Biso      1.000     H          0.133128  
         H10       1.0000    0.11280   0.16720   0.48960   Biso      1.000     H          0.084488  
         H11       1.0000    0.24830   0.88760   0.31180   Biso      1.000     H          0.104273  
         H12       1.0000    0.24070   0.00920   0.58000   Biso      1.000     H          0.092516  
         H13       1.0000    0.73590   0.20510   0.56550   Biso      1.000     H          0.133982  
         H14       1.0000    0.89910   0.25050   0.68910   Biso      1.000     H          0.261548  
         H15       1.0000    0.87330   0.79390   0.32950   Biso      1.000     H          0.122656  
         H16       1.0000    0.95410   0.93300   0.51320   Biso      1.000     H          0.09554299999999999           
         H17       1.0000    0.88720   0.83280   0.51040   Biso      1.000     H          0.084063  
         H18       1.0000    0.75930   0.99080   0.42000   Biso      1.000     H          0.09246900000000001           
         H19       1.0000    0.30750   0.10620   0.57300   Biso      1.000     H          0.11924900000000001           
         H20       1.0000    0.10090   0.74950   0.31090   Biso      1.000     H          0.261546  
         H21       1.0000    0.41360   0.49440   0.70760   Biso      1.000     H          0.133915  
         H22       1.0000    0.52660   0.41020   0.66760   Biso      1.000     H          0.152024  
         H23       1.0000    0.83600   0.69510   0.96610   Biso      1.000     H          0.128695  
         H24       1.0000    0.73170   0.63630   0.88570   Biso      1.000     H          0.041162  
         H25       1.0000    0.74830   0.68820   0.11240   Biso      1.000     H          0.104224  
         H26       1.0000    0.62300   0.64450   0.04550   Biso      1.000     H          0.06797   
         H27       1.0000    0.23590   0.43450   0.79490   Biso      1.000     H          0.133948  
         H28       1.0000    0.33750   0.49920   0.87280   Biso      1.000     H          0.116923  
         H29       1.0000    0.55560   0.33390   0.89230   Biso      1.000     H          0.097365  
         H30       1.0000    0.62670   0.32950   0.79390   Biso      1.000     H          0.12274600000000001           
         H31       1.0000    0.54590   0.51320   0.93300   Biso      1.000     H          0.095474  
         H32       1.0000    0.61280   0.51040   0.83280   Biso      1.000     H          0.085786  
         H33       1.0000    0.74070   0.42000   0.99080   Biso      1.000     H          0.092446  
         H34       1.0000    0.80750   0.42700   0.89380   Biso      1.000     H          0.119324  
         H35       1.0000    0.39910   0.31090   0.74950   Biso      1.000     H          0.26153200000000004           
         H36       1.0000    0.94440   0.89230   0.33390   Biso      1.000     H          0.097401  
         H37       1.0000    0.16250   0.87280   0.49920   Biso      1.000     H          0.11696500000000001           
         H38       1.0000    0.69250   0.89380   0.42700   Biso      1.000     H          0.11926500000000001           
         H39       1.0000    0.87700   0.04550   0.64450   Biso      1.000     H          0.068008  
         H40       1.0000    0.58640   0.50560   0.29240   Biso      1.000     H          0.133056  
         H41       1.0000    0.47340   0.58980   0.33240   Biso      1.000     H          0.152014  
         H42       1.0000    0.16400   0.30490   0.03390   Biso      1.000     H          0.128049  
         H43       1.0000    0.26830   0.36370   0.11430   Biso      1.000     H          0.041384  
         H44       1.0000    0.26410   0.79490   0.43450   Biso      1.000     H          0.133936  
         H45       1.0000    0.37700   0.35550   0.95450   Biso      1.000     H          0.067915  
         H46       1.0000    0.76410   0.56550   0.20510   Biso      1.000     H          0.133907  
         H47       1.0000    0.66250   0.50080   0.12720   Biso      1.000     H          0.11688299999999999           
         H48       1.0000    0.44440   0.66610   0.10770   Biso      1.000     H          0.097399  
         H49       1.0000    0.37330   0.67050   0.20610   Biso      1.000     H          0.122619  
         H50       1.0000    0.25170   0.31180   0.88760   Biso      1.000     H          0.104281  
         H51       1.0000    0.75170   0.11240   0.68820   Biso      1.000     H          0.10428   
         H52       1.0000    0.38720   0.48960   0.16720   Biso      1.000     H          0.084597  
         H53       1.0000    0.25930   0.58000   0.00920   Biso      1.000     H          0.092514  
         H54       1.0000    0.19250   0.57300   0.10620   Biso      1.000     H          0.11924100000000001           
         H55       1.0000    0.60090   0.68910   0.25050   Biso      1.000     H          0.261482  
         H56       1.0000    0.08640   0.70760   0.49440   Biso      1.000     H          0.133744  
         H57       1.0000    0.97340   0.66760   0.41020   Biso      1.000     H          0.1522    
         H58       1.0000    0.66400   0.96610   0.69510   Biso      1.000     H          0.128326  
         H59       1.0000    0.76830   0.88570   0.63630   Biso      1.000     H          0.040669  
         H60       1.0000    0.45410   0.48680   0.06700   Biso      1.000     H          0.095478  
         N1        1.0000    0.29430   0.00030   0.43610   Biso      1.000     N          -0.064824           
         N2        1.0000    0.57110   0.62590   0.22210   Biso      1.000     N          0.011276000000000001          
         N3        1.0000    0.20570   0.43610   0.00030   Biso      1.000     N          -0.064876           
         N4        1.0000    0.07110   0.77790   0.37410   Biso      1.000     N          0.011276999999999999          
         N5        1.0000    0.79430   0.56390   0.99970   Biso      1.000     N          -0.065362           
         N6        1.0000    0.42890   0.37410   0.77790   Biso      1.000     N          0.011253  
         N7        1.0000    0.92890   0.22210   0.62590   Biso      1.000     N          0.011356999999999999          
         N8        1.0000    0.70570   0.99970   0.56390   Biso      1.000     N          -0.06477999999999999          
         O1        1.0000    0.98580   0.47590   0.11370   Biso      1.000     O          -0.5405369999999999           
         O2        1.0000    0.08490   0.39090   0.22570   Biso      1.000     O          -0.67276  
         O3        1.0000    0.65620   0.58672   0.47888   Biso      1.000     O          -0.564368           
         O4        1.0000    0.41510   0.22570   0.39090   Biso      1.000     O          -0.67269  
         O5        1.0000    0.51420   0.11370   0.47590   Biso      1.000     O          -0.540546           
         O6        1.0000    0.21940   0.60510   0.30410   Biso      1.000     O          -0.576017           
         O7        1.0000    0.71940   0.69590   0.39490   Biso      1.000     O          -0.57695  
         O8        1.0000    0.15620   0.52112   0.41328   Biso      1.000     O          -0.5653060000000001           
         O9        1.0000    0.78060   0.39490   0.69590   Biso      1.000     O          -0.577549           
         O10       1.0000    0.58490   0.77430   0.60910   Biso      1.000     O          -0.671925           
         O11       1.0000    0.28060   0.30410   0.60510   Biso      1.000     O          -0.57609  
         O12       1.0000    0.34380   0.41328   0.52112   Biso      1.000     O          -0.565354           
         O13       1.0000    0.01420   0.52410   0.88630   Biso      1.000     O          -0.540764           
         O14       1.0000    0.91510   0.60910   0.77430   Biso      1.000     O          -0.672253           
         O15       1.0000    0.84380   0.47888   0.58672   Biso      1.000     O          -0.564133           
         O16       1.0000    0.48580   0.88630   0.52410   Biso      1.000     O          -0.5413439999999999           
         U1        1.0000    0.25000   0.35110   0.35110   Biso      1.000     U          1.179108  
         U2        1.0000    0.75000   0.64890   0.64890   Biso      1.000     U          1.179036 