
##########################################################################
#               Crystallographic Information Format file
#               Produced by PyCifRW module
#
#  This is a CIF file.  CIF has been adopted by the International
#  Union of Crystallography as the standard for data archiving and
#  transmission.
#
#  For information on this file format, follow the CIF links at
#  http://www.iucr.org
##########################################################################

data_image0

_cell_length_a                          11.573
_cell_length_b                          13.892
_cell_length_c                          14.655
_cell_angle_alpha                       62.631
_cell_angle_beta                        68.977
_cell_angle_gamma                       68.8
_symmetry_space_group_name_H-M          'P 1'
_symmetry_int_tables_number             1
loop_
  _symmetry_equiv_pos_as_xyz
         'x, y, z' 
loop_
  _atom_site_label
  _atom_site_occupancy
  _atom_site_fract_x
  _atom_site_fract_y
  _atom_site_fract_z
  _atom_site_thermal_displace_type
  _atom_site_B_iso_or_equiv
  _atom_site_type_symbol
  _atom_site_charge
         C1        1.0000    0.94200   0.35190   0.34400   Biso      1.000     C          -0.272546           
         C2        1.0000    0.84450   0.90740   0.85950   Biso      1.000     C          0.120777  
         C3        1.0000    0.71110   0.79940   0.92410   Biso      1.000     C          -0.084235           
         C4        1.0000    0.91380   0.48560   0.67880   Biso      1.000     C          -0.095236           
         C5        1.0000    0.92920   0.65140   0.69260   Biso      1.000     C          0.226698  
         C6        1.0000    0.84980   0.71010   0.75640   Biso      1.000     C          -0.285053           
         C7        1.0000    0.90340   0.76380   0.78480   Biso      1.000     C          0.23563800000000001           
         C8        1.0000    0.03100   0.76030   0.75160   Biso      1.000     C          -0.28363  
         C9        1.0000    0.10720   0.70290   0.68640   Biso      1.000     C          0.233341  
         C10       1.0000    0.05800   0.64810   0.65600   Biso      1.000     C          -0.272538           
         C11       1.0000    0.09070   0.54400   0.99660   Biso      1.000     C          -0.144622           
         C12       1.0000    0.87650   0.53260   0.05010   Biso      1.000     C          -0.151478           
         C13       1.0000    0.07230   0.86760   0.09220   Biso      1.000     C          0.586991  
         C14       1.0000    0.66830   0.87190   0.97110   Biso      1.000     C          -0.013425999999999999         
         C15       1.0000    0.33170   0.12810   0.02890   Biso      1.000     C          -0.013462           
         C16       1.0000    0.92770   0.13240   0.90780   Biso      1.000     C          0.586991  
         C17       1.0000    0.12350   0.46740   0.94990   Biso      1.000     C          -0.151478           
         C18       1.0000    0.90930   0.45600   0.00340   Biso      1.000     C          -0.144622           
         C19       1.0000    0.03300   0.42320   0.95300   Biso      1.000     C          0.06887599999999999           
         C20       1.0000    0.16230   0.35190   0.80900   Biso      1.000     C          -0.169991           
         C21       1.0000    0.33630   0.62340   0.62260   Biso      1.000     C          0.126947  
         C22       1.0000    0.06690   0.34300   0.90050   Biso      1.000     C          0.061399  
         C23       1.0000    0.28970   0.78690   0.62990   Biso      1.000     C          -0.100815           
         C24       1.0000    0.77440   0.63360   0.62360   Biso      1.000     C          0.112219  
         C25       1.0000    0.83770   0.64810   0.19100   Biso      1.000     C          -0.169992           
         C26       1.0000    0.93310   0.65700   0.09950   Biso      1.000     C          0.061399  
         C27       1.0000    0.00620   0.73220   0.06540   Biso      1.000     C          -0.171996           
         C28       1.0000    0.98500   0.79750   0.12130   Biso      1.000     C          -0.014066999999999998         
         C29       1.0000    0.88970   0.78570   0.21330   Biso      1.000     C          -0.12186099999999998          
         C30       1.0000    0.81570   0.71140   0.24860   Biso      1.000     C          -0.0019219999999999999        
         C31       1.0000    0.72640   0.68860   0.35400   Biso      1.000     C          0.5717260000000001  
         C32       1.0000    0.58290   0.34440   0.67390   Biso      1.000     C          0.5974109999999999  
         C33       1.0000    0.89350   0.96870   0.51130   Biso      1.000     C          -0.154726           
         C34       1.0000    0.99030   0.06740   0.54850   Biso      1.000     C          -0.153426           
         C35       1.0000    0.88260   0.03790   0.56000   Biso      1.000     C          0.061591  
         C36       1.0000    0.66800   0.01700   0.68110   Biso      1.000     C          -0.186142           
         C37       1.0000    0.75630   0.08080   0.62280   Biso      1.000     C          0.06832200000000001           
         C38       1.0000    0.72750   0.18620   0.62080   Biso      1.000     C          -0.183056           
         C39       1.0000    0.61300   0.22750   0.68010   Biso      1.000     C          -3.8e-05  
         C40       1.0000    0.52760   0.16120   0.74260   Biso      1.000     C          -0.151285           
         C41       1.0000    0.55400   0.05680   0.74090   Biso      1.000     C          -0.002624           
         C42       1.0000    0.46070   0.98350   0.80850   Biso      1.000     C          0.6037819999999999  
         C43       1.0000    0.83490   0.46470   0.64660   Biso      1.000     C          -0.034388999999999996         
         C44       1.0000    0.41600   0.75460   0.59350   Biso      1.000     C          -0.018743           
         C45       1.0000    0.99380   0.26780   0.93460   Biso      1.000     C          -0.171996           
         C46       1.0000    0.96700   0.57680   0.04700   Biso      1.000     C          0.06887599999999999           
         C47       1.0000    0.53930   0.01650   0.19150   Biso      1.000     C          0.603783  
         C48       1.0000    0.22560   0.36640   0.37640   Biso      1.000     C          0.11221800000000001           
         C49       1.0000    0.28890   0.20060   0.07590   Biso      1.000     C          -0.0842   
         C50       1.0000    0.33200   0.98300   0.31890   Biso      1.000     C          -0.186143           
         C51       1.0000    0.24370   0.91920   0.37720   Biso      1.000     C          0.06832200000000001           
         C52       1.0000    0.15550   0.09260   0.14050   Biso      1.000     C          0.120777  
         C53       1.0000    0.27250   0.81380   0.37920   Biso      1.000     C          -0.183056           
         C54       1.0000    0.00970   0.93260   0.45150   Biso      1.000     C          -0.153422           
         C55       1.0000    0.38700   0.77250   0.31990   Biso      1.000     C          -3.8e-05  
         C56       1.0000    0.47240   0.83880   0.25740   Biso      1.000     C          -0.151285           
         C57       1.0000    0.44600   0.94320   0.25910   Biso      1.000     C          -0.002624           
         C58       1.0000    0.01500   0.20250   0.87870   Biso      1.000     C          -0.014068           
         C59       1.0000    0.71030   0.21310   0.37010   Biso      1.000     C          -0.100815           
         C60       1.0000    0.16510   0.53530   0.35340   Biso      1.000     C          -0.034421           
         C61       1.0000    0.58400   0.24540   0.40650   Biso      1.000     C          -0.018743           
         C62       1.0000    0.66370   0.37660   0.37740   Biso      1.000     C          0.126948  
         C63       1.0000    0.08620   0.51440   0.32120   Biso      1.000     C          -0.095203           
         C64       1.0000    0.11740   0.96210   0.44000   Biso      1.000     C          0.061589  
         C65       1.0000    0.09660   0.23620   0.21520   Biso      1.000     C          0.23563800000000001           
         C66       1.0000    0.89280   0.29710   0.31360   Biso      1.000     C          0.233344  
         C67       1.0000    0.96900   0.23970   0.24840   Biso      1.000     C          -0.28362800000000005          
         C68       1.0000    0.07080   0.34860   0.30740   Biso      1.000     C          0.226701  
         C69       1.0000    0.10650   0.03130   0.48870   Biso      1.000     C          -0.154721           
         C70       1.0000    0.18430   0.28860   0.75140   Biso      1.000     C          -0.0019260000000000002        
         C71       1.0000    0.41710   0.65560   0.32610   Biso      1.000     C          0.5974109999999999  
         C72       1.0000    0.11030   0.21430   0.78670   Biso      1.000     C          -0.121857           
         C73       1.0000    0.27360   0.31140   0.64600   Biso      1.000     C          0.5717270000000001  
         C74       1.0000    0.15020   0.28990   0.24360   Biso      1.000     C          -0.285053           
         Co1       1.0000    0.72718   0.05665   0.98441   Biso      1.000     Co          0.8929450000000001  
         Co2       1.0000    0.61599   0.56716   0.54603   Biso      1.000     Co          0.810357  
         Co3       1.0000    0.27282   0.94335   0.01559   Biso      1.000     Co          0.892948  
         Co4       1.0000    0.38401   0.43284   0.45397   Biso      1.000     Co          0.810357  
         H1        1.0000    0.83960   0.39580   0.64800   Biso      1.000     H          0.125551  
         H2        1.0000    0.75450   0.14700   0.35930   Biso      1.000     H          0.133979  
         H3        1.0000    0.88980   0.39000   0.38810   Biso      1.000     H          0.157647  
         H4        1.0000    0.67230   0.44300   0.37210   Biso      1.000     H          0.115875  
         H5        1.0000    0.72810   0.70750   0.60540   Biso      1.000     H          0.10575699999999999           
         H6        1.0000    0.45280   0.18660   0.78570   Biso      1.000     H          0.11693800000000001           
         H7        1.0000    0.82250   0.94670   0.51900   Biso      1.000     H          0.120375  
         H8        1.0000    0.78540   0.23080   0.57900   Biso      1.000     H          0.110524  
         H9        1.0000    0.08580   0.06130   0.18030   Biso      1.000     H          0.11898299999999999           
         H10       1.0000    0.93430   0.20430   0.22760   Biso      1.000     H          0.154318  
         H11       1.0000    0.32760   0.25500   0.06360   Biso      1.000     H          0.14466099999999998           
         H12       1.0000    0.87560   0.82840   0.25160   Biso      1.000     H          0.13026300000000002           
         H13       1.0000    0.68530   0.94650   0.68020   Biso      1.000     H          0.109241  
         H14       1.0000    0.01700   0.56580   0.29380   Biso      1.000     H          0.11458900000000001           
         H15       1.0000    0.98430   0.11260   0.58190   Biso      1.000     H          0.121178  
         H16       1.0000    0.23710   0.28660   0.22060   Biso      1.000     H          0.15668900000000002           
         H17       1.0000    0.07070   0.73920   0.00410   Biso      1.000     H          0.12037300000000001           
         H18       1.0000    0.52500   0.20430   0.42600   Biso      1.000     H          0.129429  
         H19       1.0000    0.12440   0.17160   0.74840   Biso      1.000     H          0.13026300000000002           
         H20       1.0000    0.24550   0.85300   0.64070   Biso      1.000     H          0.133979  
         H21       1.0000    0.92930   0.26080   0.99590   Biso      1.000     H          0.12037300000000001           
         H22       1.0000    0.21280   0.40150   0.78560   Biso      1.000     H          0.120854  
         H23       1.0000    0.84670   0.42680   0.00630   Biso      1.000     H          0.11956900000000001           
         H24       1.0000    0.17750   0.05330   0.48100   Biso      1.000     H          0.120375  
         H25       1.0000    0.20780   0.44600   0.91600   Biso      1.000     H          0.122332  
         H26       1.0000    0.01570   0.88740   0.41810   Biso      1.000     H          0.121178  
         H27       1.0000    0.40580   0.12440   0.97610   Biso      1.000     H          0.12041600000000001           
         H28       1.0000    0.78720   0.59850   0.21440   Biso      1.000     H          0.120854  
         H29       1.0000    0.59420   0.87560   0.02390   Biso      1.000     H          0.12041400000000001           
         H30       1.0000    0.47500   0.79570   0.57400   Biso      1.000     H          0.129429  
         H31       1.0000    0.31470   0.05350   0.31980   Biso      1.000     H          0.10924   
         H32       1.0000    0.79220   0.55400   0.08400   Biso      1.000     H          0.122332  
         H33       1.0000    0.11020   0.61000   0.61190   Biso      1.000     H          0.157646  
         H34       1.0000    0.27190   0.29250   0.39460   Biso      1.000     H          0.10575799999999999           
         H35       1.0000    0.32770   0.55700   0.62790   Biso      1.000     H          0.115875  
         H36       1.0000    0.91420   0.93870   0.81970   Biso      1.000     H          0.11898299999999999           
         H37       1.0000    0.16040   0.60420   0.35200   Biso      1.000     H          0.125553  
         H38       1.0000    0.67240   0.74500   0.93640   Biso      1.000     H          0.14466199999999999           
         H39       1.0000    0.98300   0.43420   0.70620   Biso      1.000     H          0.11459100000000001           
         H40       1.0000    0.15330   0.57320   0.99370   Biso      1.000     H          0.11956900000000001           
         H41       1.0000    0.76290   0.71340   0.77940   Biso      1.000     H          0.15669   
         H42       1.0000    0.54720   0.81340   0.21430   Biso      1.000     H          0.11693699999999999           
         H43       1.0000    0.06570   0.79570   0.77240   Biso      1.000     H          0.154318  
         H44       1.0000    0.21460   0.76920   0.42100   Biso      1.000     H          0.110524  
         N1        1.0000    0.87630   0.59360   0.66490   Biso      1.000     N          0.017293  
         N2        1.0000    0.24000   0.70360   0.64770   Biso      1.000     N          0.011939  
         N3        1.0000    0.44370   0.65280   0.58970   Biso      1.000     N          -0.284023           
         N4        1.0000    0.74780   0.55850   0.61200   Biso      1.000     N          -0.274002           
         N5        1.0000    0.82440   0.82060   0.85350   Biso      1.000     N          0.006239  
         N6        1.0000    0.24970   0.05910   0.07000   Biso      1.000     N          -0.305731           
         N7        1.0000    0.17560   0.17940   0.14650   Biso      1.000     N          0.0062369999999999995         
         N8        1.0000    0.55630   0.34720   0.41030   Biso      1.000     N          -0.284023           
         N9        1.0000    0.76000   0.29640   0.35230   Biso      1.000     N          0.011939  
         N10       1.0000    0.12370   0.40640   0.33510   Biso      1.000     N          0.017291  
         N11       1.0000    0.75030   0.94090   0.93000   Biso      1.000     N          -0.305734           
         N12       1.0000    0.25220   0.44150   0.38800   Biso      1.000     N          -0.273999           
         O1        1.0000    0.37590   0.58800   0.41530   Biso      1.000     O          -0.566817           
         O2        1.0000    0.07770   0.89730   0.15750   Biso      1.000     O          -0.562198           
         O3        1.0000    0.69240   0.75150   0.40100   Biso      1.000     O          -0.560083           
         O4        1.0000    0.69370   0.59640   0.39550   Biso      1.000     O          -0.553979           
         O5        1.0000    0.62410   0.41200   0.58470   Biso      1.000     O          -0.566817           
         O6        1.0000    0.52350   0.36590   0.75260   Biso      1.000     O          -0.595218           
         O7        1.0000    0.30630   0.40360   0.60450   Biso      1.000     O          -0.553979           
         O8        1.0000    0.37720   0.01420   0.87810   Biso      1.000     O          -0.5712520000000001           
         O9        1.0000    0.92230   0.10270   0.84250   Biso      1.000     O          -0.562198           
         O10       1.0000    0.14560   0.89160   0.00260   Biso      1.000     O          -0.540342           
         O11       1.0000    0.30760   0.24850   0.59900   Biso      1.000     O          -0.560083           
         O12       1.0000    0.52560   0.09870   0.20750   Biso      1.000     O          -0.575092           
         O13       1.0000    0.62280   0.98580   0.12190   Biso      1.000     O          -0.5712510000000001           
         O14       1.0000    0.47650   0.63410   0.24740   Biso      1.000     O          -0.595218           
         O15       1.0000    0.47440   0.90130   0.79250   Biso      1.000     O          -0.575092           
         O16       1.0000    0.85440   0.10840   0.99740   Biso      1.000     O          -0.540342 