
##########################################################################
#               Crystallographic Information Format file
#               Produced by PyCifRW module
#
#  This is a CIF file.  CIF has been adopted by the International
#  Union of Crystallography as the standard for data archiving and
#  transmission.
#
#  For information on this file format, follow the CIF links at
#  http://www.iucr.org
##########################################################################

data_image0

_cell_length_a                          14.2786
_cell_length_b                          13.0268
_cell_length_c                          17.8255
_cell_angle_alpha                       90
_cell_angle_beta                        95.847
_cell_angle_gamma                       90
_symmetry_space_group_name_H-M          'P 1'
_symmetry_int_tables_number             1
loop_
  _symmetry_equiv_pos_as_xyz
         'x, y, z' 
loop_
  _atom_site_label
  _atom_site_occupancy
  _atom_site_fract_x
  _atom_site_fract_y
  _atom_site_fract_z
  _atom_site_thermal_displace_type
  _atom_site_B_iso_or_equiv
  _atom_site_type_symbol
  _atom_site_charge
         C1        1.0000    0.66960   0.71340   0.14010   Biso      1.000     C          -0.014465           
         C2        1.0000    0.22430   0.42410   0.87640   Biso      1.000     C          -0.00315  
         C3        1.0000    0.22510   0.39950   0.95280   Biso      1.000     C          -0.15978399999999998          
         C4        1.0000    0.69920   0.18140   0.60310   Biso      1.000     C          -0.19858900000000002          
         C5        1.0000    0.27550   0.31440   0.98180   Biso      1.000     C          0.08378300000000001           
         C6        1.0000    0.32740   0.26010   0.93510   Biso      1.000     C          -0.15104700000000001          
         C7        1.0000    0.76980   0.21790   0.56240   Biso      1.000     C          0.075699  
         C8        1.0000    0.38740   0.22420   0.80940   Biso      1.000     C          0.632009  
         C9        1.0000    0.15990   0.50850   0.84370   Biso      1.000     C          0.6364609999999999  
         C10       1.0000    0.26980   0.28210   0.06240   Biso      1.000     C          0.075697  
         C11       1.0000    0.19920   0.31860   0.10310   Biso      1.000     C          -0.19858800000000001          
         C12       1.0000    0.72410   0.63140   0.16960   Biso      1.000     C          -0.132247           
         C13       1.0000    0.19670   0.29290   0.17800   Biso      1.000     C          -0.028251           
         C14       1.0000    0.26330   0.22850   0.21280   Biso      1.000     C          -0.129357           
         C15       1.0000    0.65990   0.99150   0.34370   Biso      1.000     C          0.6364609999999999  
         C16       1.0000    0.72430   0.07590   0.37640   Biso      1.000     C          -0.00315  
         C17       1.0000    0.33090   0.18520   0.17230   Biso      1.000     C          0.006499  
         C18       1.0000    0.88740   0.27580   0.30940   Biso      1.000     C          0.632009  
         C19       1.0000    0.12350   0.33760   0.22310   Biso      1.000     C          0.580237  
         C20       1.0000    0.39860   0.10720   0.21030   Biso      1.000     C          0.57522   
         C21       1.0000    0.73670   0.77150   0.78720   Biso      1.000     C          -0.129365           
         C22       1.0000    0.80330   0.70710   0.82200   Biso      1.000     C          -0.028244           
         C23       1.0000    0.82740   0.23990   0.43510   Biso      1.000     C          -0.151049           
         C24       1.0000    0.80080   0.68140   0.89690   Biso      1.000     C          -0.19858800000000001          
         C25       1.0000    0.73020   0.71790   0.93760   Biso      1.000     C          0.075699  
         C26       1.0000    0.84010   0.49150   0.15630   Biso      1.000     C          0.63646   
         C27       1.0000    0.61260   0.77580   0.19060   Biso      1.000     C          0.632009  
         C28       1.0000    0.77550   0.18560   0.48180   Biso      1.000     C          0.08378300000000001           
         C29       1.0000    0.67260   0.73990   0.06490   Biso      1.000     C          -0.151049           
         C30       1.0000    0.83040   0.21340   0.35990   Biso      1.000     C          -0.014466           
         C31       1.0000    0.77590   0.13140   0.33040   Biso      1.000     C          -0.132242           
         C32       1.0000    0.33510   0.21410   0.09820   Biso      1.000     C          -0.14836  
         C33       1.0000    0.33040   0.28660   0.85990   Biso      1.000     C          -0.014466           
         C34       1.0000    0.27590   0.36860   0.83040   Biso      1.000     C          -0.132242           
         C35       1.0000    0.66490   0.78590   0.90180   Biso      1.000     C          -0.14836300000000002          
         C36       1.0000    0.16960   0.78660   0.64010   Biso      1.000     C          -0.014465           
         C37       1.0000    0.22410   0.86860   0.66960   Biso      1.000     C          -0.132247           
         C38       1.0000    0.77570   0.57590   0.12360   Biso      1.000     C          -0.003145           
         C39       1.0000    0.27570   0.92410   0.62360   Biso      1.000     C          -0.003145           
         C40       1.0000    0.27490   0.89950   0.54720   Biso      1.000     C          -0.15978399999999998          
         C41       1.0000    0.77490   0.60050   0.04720   Biso      1.000     C          -0.15978399999999998          
         C42       1.0000    0.22450   0.81440   0.51820   Biso      1.000     C          0.08378300000000001           
         C43       1.0000    0.17260   0.76010   0.56490   Biso      1.000     C          -0.15104700000000001          
         C44       1.0000    0.11260   0.72420   0.69060   Biso      1.000     C          0.632009  
         C45       1.0000    0.34010   0.00850   0.65630   Biso      1.000     C          0.63646   
         C46       1.0000    0.23020   0.78210   0.43760   Biso      1.000     C          0.075698  
         C47       1.0000    0.30080   0.81860   0.39690   Biso      1.000     C          -0.19858699999999999          
         C48       1.0000    0.66910   0.81480   0.82770   Biso      1.000     C          0.006504  
         C49       1.0000    0.30330   0.79290   0.32200   Biso      1.000     C          -0.028251           
         C50       1.0000    0.23670   0.72850   0.28720   Biso      1.000     C          -0.129357           
         C51       1.0000    0.72450   0.68560   0.01820   Biso      1.000     C          0.083785  
         C52       1.0000    0.16910   0.68520   0.32770   Biso      1.000     C          0.0065    
         C53       1.0000    0.69670   0.20710   0.67800   Biso      1.000     C          -0.028251           
         C54       1.0000    0.87650   0.66240   0.77690   Biso      1.000     C          0.580236  
         C55       1.0000    0.60140   0.89280   0.78970   Biso      1.000     C          0.575221  
         C56       1.0000    0.76330   0.27150   0.71280   Biso      1.000     C          -0.129358           
         C57       1.0000    0.89860   0.39280   0.71030   Biso      1.000     C          0.57522   
         C58       1.0000    0.83510   0.28590   0.59820   Biso      1.000     C          -0.14836400000000002          
         C59       1.0000    0.83090   0.31480   0.67230   Biso      1.000     C          0.006504  
         C60       1.0000    0.10140   0.60720   0.28970   Biso      1.000     C          0.57522   
         C61       1.0000    0.37650   0.83760   0.27690   Biso      1.000     C          0.580237  
         C62       1.0000    0.62350   0.16240   0.72310   Biso      1.000     C          0.580237  
         C63       1.0000    0.16490   0.71410   0.40180   Biso      1.000     C          -0.148359           
         C64       1.0000    0.72510   0.10050   0.45280   Biso      1.000     C          -0.15978299999999998          
         H1        1.0000    0.88250   0.31230   0.57170   Biso      1.000     H          0.131523  
         H2        1.0000    0.86170   0.29640   0.45430   Biso      1.000     H          0.13201300000000002           
         H3        1.0000    0.76310   0.28620   0.76390   Biso      1.000     H          0.129755  
         H4        1.0000    0.65280   0.13900   0.57960   Biso      1.000     H          0.131536  
         H5        1.0000    0.72530   0.61450   0.22030   Biso      1.000     H          0.12750999999999998           
         H6        1.0000    0.69210   0.06020   0.48420   Biso      1.000     H          0.12773800000000002           
         H7        1.0000    0.80790   0.56020   0.01580   Biso      1.000     H          0.12773900000000002           
         H8        1.0000    0.15280   0.36100   0.07960   Biso      1.000     H          0.131536  
         H9        1.0000    0.63830   0.79640   0.04570   Biso      1.000     H          0.13201300000000002           
         H10       1.0000    0.11750   0.68770   0.42830   Biso      1.000     H          0.131524  
         H11       1.0000    0.13830   0.70360   0.54570   Biso      1.000     H          0.13201300000000002           
         H12       1.0000    0.30790   0.93980   0.51580   Biso      1.000     H          0.12773900000000002           
         H13       1.0000    0.77470   0.11450   0.27970   Biso      1.000     H          0.12750899999999998           
         H14       1.0000    0.22530   0.88550   0.72030   Biso      1.000     H          0.12750999999999998           
         H15       1.0000    0.23690   0.71380   0.23610   Biso      1.000     H          0.12975599999999998           
         H16       1.0000    0.61750   0.81230   0.92830   Biso      1.000     H          0.131524  
         H17       1.0000    0.19210   0.43980   0.98420   Biso      1.000     H          0.12773800000000002           
         H18       1.0000    0.36170   0.20360   0.95430   Biso      1.000     H          0.13201300000000002           
         H19       1.0000    0.26310   0.21380   0.26390   Biso      1.000     H          0.129755  
         H20       1.0000    0.38250   0.18770   0.07170   Biso      1.000     H          0.131523  
         H21       1.0000    0.73690   0.78620   0.73610   Biso      1.000     H          0.12975699999999998           
         H22       1.0000    0.84720   0.63900   0.92040   Biso      1.000     H          0.131536  
         H23       1.0000    0.27470   0.38550   0.77970   Biso      1.000     H          0.12750899999999998           
         H24       1.0000    0.34720   0.86100   0.42040   Biso      1.000     H          0.131536  
         O1        1.0000    0.86120   0.65330   0.70917   Biso      1.000     O          -0.448654           
         O2        1.0000    0.87500   0.50650   0.22266   Biso      1.000     O          -0.521817           
         O3        1.0000    0.85420   0.41550   0.11558   Biso      1.000     O          -0.57443  
         O4        1.0000    0.61530   0.75040   0.25719   Biso      1.000     O          -0.603377           
         O5        1.0000    0.56760   0.85040   0.15944   Biso      1.000     O          -0.514958           
         O6        1.0000    0.95470   0.63100   0.81319   Biso      1.000     O          -0.603934           
         O7        1.0000    0.44760   0.05630   0.16615   Biso      1.000     O          -0.5612149999999999           
         O8        1.0000    0.55240   0.94370   0.83385   Biso      1.000     O          -0.5612149999999999           
         O9        1.0000    0.14580   0.58450   0.88442   Biso      1.000     O          -0.574429           
         O10       1.0000    0.09630   0.59430   0.22258   Biso      1.000     O          -0.5209239999999999           
         O11       1.0000    0.05240   0.55630   0.33385   Biso      1.000     O          -0.561214           
         O12       1.0000    0.35420   0.08450   0.61558   Biso      1.000     O          -0.574429           
         O13       1.0000    0.37500   0.99350   0.72266   Biso      1.000     O          -0.521817           
         O14       1.0000    0.43240   0.14960   0.84056   Biso      1.000     O          -0.514958           
         O15       1.0000    0.38470   0.24960   0.74281   Biso      1.000     O          -0.603375           
         O16       1.0000    0.12500   0.49350   0.77734   Biso      1.000     O          -0.521816           
         O17       1.0000    0.94760   0.44370   0.66615   Biso      1.000     O          -0.561217           
         O18       1.0000    0.04530   0.36900   0.18681   Biso      1.000     O          -0.603935           
         O19       1.0000    0.13880   0.34670   0.29083   Biso      1.000     O          -0.448655           
         O20       1.0000    0.36120   0.84670   0.20917   Biso      1.000     O          -0.448655           
         O21       1.0000    0.40370   0.09430   0.27742   Biso      1.000     O          -0.520926           
         O22       1.0000    0.11530   0.74960   0.75719   Biso      1.000     O          -0.603376           
         O23       1.0000    0.06760   0.64960   0.65944   Biso      1.000     O          -0.514957           
         O24       1.0000    0.93240   0.35040   0.34056   Biso      1.000     O          -0.514958           
         O25       1.0000    0.88470   0.25040   0.24281   Biso      1.000     O          -0.603376           
         O26       1.0000    0.62500   0.00650   0.27734   Biso      1.000     O          -0.521817           
         O27       1.0000    0.64580   0.91550   0.38442   Biso      1.000     O          -0.574431           
         O28       1.0000    0.54530   0.13100   0.68681   Biso      1.000     O          -0.603935           
         O29       1.0000    0.63880   0.15330   0.79083   Biso      1.000     O          -0.448655           
         O30       1.0000    0.90370   0.40570   0.77742   Biso      1.000     O          -0.520929           
         O31       1.0000    0.59630   0.90570   0.72258   Biso      1.000     O          -0.520925           
         O32       1.0000    0.45470   0.86900   0.31319   Biso      1.000     O          -0.6039359999999999           
         Zn1       1.0000    0.07331   0.71941   0.86464   Biso      1.000     Zn          1.007555  
         Zn2       1.0000    0.50776   0.94395   0.22653   Biso      1.000     Zn          0.937018  
         Zn3       1.0000    0.42669   0.21941   0.63536   Biso      1.000     Zn          1.00755   
         Zn4       1.0000    0.99224   0.44395   0.27347   Biso      1.000     Zn          0.937018  
         Zn5       1.0000    0.92669   0.28059   0.13536   Biso      1.000     Zn          1.007552  
         Zn6       1.0000    0.57331   0.78059   0.36464   Biso      1.000     Zn          1.007557  
         Zn7       1.0000    0.49224   0.05605   0.77347   Biso      1.000     Zn          0.937019  
         Zn8       1.0000    0.00776   0.55605   0.72653   Biso      1.000     Zn          0.937019 