
##########################################################################
#               Crystallographic Information Format file
#               Produced by PyCifRW module
#
#  This is a CIF file.  CIF has been adopted by the International
#  Union of Crystallography as the standard for data archiving and
#  transmission.
#
#  For information on this file format, follow the CIF links at
#  http://www.iucr.org
##########################################################################

data_image0

_cell_length_a                          11.7463
_cell_length_b                          10.957
_cell_length_c                          15.8217
_cell_angle_alpha                       90
_cell_angle_beta                        91.76
_cell_angle_gamma                       90
_symmetry_space_group_name_H-M          'P 1'
_symmetry_int_tables_number             1
loop_
  _symmetry_equiv_pos_as_xyz
         'x, y, z' 
loop_
  _atom_site_label
  _atom_site_occupancy
  _atom_site_fract_x
  _atom_site_fract_y
  _atom_site_fract_z
  _atom_site_thermal_displace_type
  _atom_site_B_iso_or_equiv
  _atom_site_type_symbol
  _atom_site_charge
         C1        1.0000    0.57530   0.25160   0.58090   Biso      1.000     C          0.530329  
         C2        1.0000    0.48000   0.70790   0.19090   Biso      1.000     C          -0.627934           
         C3        1.0000    0.85480   0.32780   0.90130   Biso      1.000     C          -0.6341899999999999           
         C4        1.0000    0.81790   0.40580   0.83030   Biso      1.000     C          0.762696  
         C5        1.0000    0.47780   0.43850   0.30500   Biso      1.000     C          0.535224  
         C6        1.0000    0.64520   0.82780   0.59870   Biso      1.000     C          -0.634189           
         C7        1.0000    0.42470   0.74840   0.41910   Biso      1.000     C          0.530329  
         C8        1.0000    0.52220   0.56150   0.69500   Biso      1.000     C          0.535224  
         C9        1.0000    0.18210   0.59420   0.16970   Biso      1.000     C          0.762696  
         C10       1.0000    0.14520   0.67220   0.09870   Biso      1.000     C          -0.634188           
         C11       1.0000    0.25810   0.41920   0.53970   Biso      1.000     C          0.53889   
         C12       1.0000    0.06280   0.73830   0.41570   Biso      1.000     C          0.534474  
         C13       1.0000    0.52000   0.29210   0.80910   Biso      1.000     C          -0.627937           
         C14       1.0000    0.55750   0.17200   0.84510   Biso      1.000     C          0.756552  
         C15       1.0000    0.05750   0.32800   0.34510   Biso      1.000     C          0.756552  
         C16       1.0000    0.02000   0.20790   0.30910   Biso      1.000     C          -0.627937           
         C17       1.0000    0.56280   0.76170   0.91570   Biso      1.000     C          0.534474  
         C18       1.0000    0.75810   0.08080   0.03970   Biso      1.000     C          0.53889   
         C19       1.0000    0.97780   0.06150   0.80500   Biso      1.000     C          0.535224  
         C20       1.0000    0.92470   0.75160   0.91910   Biso      1.000     C          0.530329  
         C21       1.0000    0.44250   0.82800   0.15490   Biso      1.000     C          0.75655   
         C22       1.0000    0.43720   0.23830   0.08430   Biso      1.000     C          0.534474  
         C23       1.0000    0.68210   0.90580   0.66970   Biso      1.000     C          0.762696  
         C24       1.0000    0.74190   0.58080   0.46030   Biso      1.000     C          0.538892  
         C25       1.0000    0.98000   0.79210   0.69090   Biso      1.000     C          -0.627934           
         C26       1.0000    0.94250   0.67200   0.65490   Biso      1.000     C          0.756549  
         C27       1.0000    0.31790   0.09420   0.33030   Biso      1.000     C          0.762696  
         C28       1.0000    0.24190   0.91920   0.96030   Biso      1.000     C          0.538892  
         C29       1.0000    0.02220   0.93850   0.19500   Biso      1.000     C          0.535224  
         C30       1.0000    0.35480   0.17220   0.40130   Biso      1.000     C          -0.6341899999999999           
         C31       1.0000    0.93720   0.26170   0.58430   Biso      1.000     C          0.534473  
         C32       1.0000    0.07530   0.24840   0.08090   Biso      1.000     C          0.530329  
         H1        1.0000    0.30190   0.37730   0.58200   Biso      1.000     H          0.021625  
         H2        1.0000    0.49350   0.34460   0.85470   Biso      1.000     H          0.192383  
         H3        1.0000    0.45770   0.27910   0.76740   Biso      1.000     H          0.192107  
         H4        1.0000    0.05340   0.33130   0.08700   Biso      1.000     H          0.025564  
         H5        1.0000    0.99920   0.76030   0.44800   Biso      1.000     H          0.025855  
         H6        1.0000    0.69810   0.62270   0.41800   Biso      1.000     H          0.021625  
         H7        1.0000    0.58410   0.33140   0.78170   Biso      1.000     H          0.166155  
         H8        1.0000    0.98120   0.91330   0.24280   Biso      1.000     H          0.025478  
         H9        1.0000    0.95770   0.22090   0.26740   Biso      1.000     H          0.192107  
         H10       1.0000    0.99350   0.15540   0.35470   Biso      1.000     H          0.192382  
         H11       1.0000    0.08410   0.16860   0.28170   Biso      1.000     H          0.166155  
         H12       1.0000    0.49920   0.73970   0.94800   Biso      1.000     H          0.025855  
         H13       1.0000    0.80190   0.12270   0.08200   Biso      1.000     H          0.021625  
         H14       1.0000    0.91590   0.83140   0.71830   Biso      1.000     H          0.166154  
         H15       1.0000    0.94660   0.66870   0.91300   Biso      1.000     H          0.025559000000000002          
         H16       1.0000    0.01880   0.08670   0.75720   Biso      1.000     H          0.025481999999999998          
         H17       1.0000    0.04230   0.77910   0.73260   Biso      1.000     H          0.192098  
         H18       1.0000    0.00650   0.84460   0.64530   Biso      1.000     H          0.192378  
         H19       1.0000    0.18220   0.75200   0.10410   Biso      1.000     H          0.173164  
         H20       1.0000    0.56230   0.81740   0.59910   Biso      1.000     H          0.198506  
         H21       1.0000    0.50080   0.26030   0.05200   Biso      1.000     H          0.025861000000000002          
         H22       1.0000    0.93770   0.31740   0.90090   Biso      1.000     H          0.198507  
         H23       1.0000    0.81780   0.24800   0.89590   Biso      1.000     H          0.173165  
         H24       1.0000    0.19810   0.87730   0.91800   Biso      1.000     H          0.021625  
         H25       1.0000    0.54230   0.72090   0.23260   Biso      1.000     H          0.192099  
         H26       1.0000    0.50650   0.65540   0.14530   Biso      1.000     H          0.192378  
         H27       1.0000    0.41590   0.66860   0.21830   Biso      1.000     H          0.166154  
         H28       1.0000    0.83370   0.36610   0.95460   Biso      1.000     H          0.18607200000000002           
         H29       1.0000    0.06230   0.68260   0.09910   Biso      1.000     H          0.198507  
         H30       1.0000    0.00080   0.23970   0.55200   Biso      1.000     H          0.025861000000000002          
         H31       1.0000    0.43770   0.18260   0.40090   Biso      1.000     H          0.198508  
         H32       1.0000    0.51880   0.41330   0.25720   Biso      1.000     H          0.025481999999999998          
         H33       1.0000    0.31780   0.25200   0.39590   Biso      1.000     H          0.17316600000000001           
         H34       1.0000    0.48120   0.58670   0.74280   Biso      1.000     H          0.025477  
         H35       1.0000    0.33370   0.13390   0.45460   Biso      1.000     H          0.18607200000000002           
         H36       1.0000    0.44660   0.83130   0.41300   Biso      1.000     H          0.025559000000000002          
         H37       1.0000    0.66630   0.86610   0.54540   Biso      1.000     H          0.18607100000000001           
         H38       1.0000    0.16630   0.63390   0.04540   Biso      1.000     H          0.18607200000000002           
         H39       1.0000    0.55340   0.16870   0.58700   Biso      1.000     H          0.025563  
         H40       1.0000    0.68220   0.74800   0.60410   Biso      1.000     H          0.173164  
         Mn1       1.0000    0.75927   0.45764   0.63514   Biso      1.000     Mn          1.000701  
         Mn2       1.0000    0.00000   0.00000   0.00000   Biso      1.000     Mn          1.0015889999999998  
         Mn3       1.0000    0.73982   0.67167   0.78587   Biso      1.000     Mn          1.005225  
         Mn4       1.0000    0.50000   0.50000   0.50000   Biso      1.000     Mn          1.0015889999999998  
         Mn5       1.0000    0.25927   0.04236   0.13514   Biso      1.000     Mn          1.0006979999999999  
         Mn6       1.0000    0.76018   0.17167   0.71413   Biso      1.000     Mn          1.005218  
         Mn7       1.0000    0.00000   0.50000   0.50000   Biso      1.000     Mn          1.022359  
         Mn8       1.0000    0.23982   0.82833   0.28587   Biso      1.000     Mn          1.005225  
         Mn9       1.0000    0.26018   0.32833   0.21413   Biso      1.000     Mn          1.005218  
         Mn10      1.0000    0.24073   0.54236   0.36486   Biso      1.000     Mn          1.0006760000000001  
         Mn11      1.0000    0.50000   0.00000   0.00000   Biso      1.000     Mn          1.022358  
         Mn12      1.0000    0.74073   0.95764   0.86486   Biso      1.000     Mn          1.000679  
         O1        1.0000    0.53380   0.46700   0.36777   Biso      1.000     O          -0.5059680000000001           
         O2        1.0000    0.50430   0.87230   0.10151   Biso      1.000     O          -0.575811           
         O3        1.0000    0.34983   0.87520   0.17851   Biso      1.000     O          -0.61642  
         O4        1.0000    0.68748   0.52820   0.51742   Biso      1.000     O          -0.5514560000000001           
         O5        1.0000    0.84520   0.58320   0.45398   Biso      1.000     O          -0.514093           
         O6        1.0000    0.39630   0.31900   0.12803   Biso      1.000     O          -0.513149           
         O7        1.0000    0.40348   0.12947   0.07790   Biso      1.000     O          -0.5431090000000001           
         O8        1.0000    0.90348   0.37053   0.57790   Biso      1.000     O          -0.54311  
         O9        1.0000    0.34520   0.91680   0.95398   Biso      1.000     O          -0.514092           
         O10       1.0000    0.80880   0.51500   0.84640   Biso      1.000     O          -0.571663           
         O11       1.0000    0.18748   0.97180   0.01742   Biso      1.000     O          -0.5514560000000001           
         O12       1.0000    0.84983   0.62480   0.67851   Biso      1.000     O          -0.616421           
         O13       1.0000    0.00430   0.62770   0.60151   Biso      1.000     O          -0.575811           
         O14       1.0000    0.30880   0.98500   0.34640   Biso      1.000     O          -0.571663           
         O15       1.0000    0.29994   0.14129   0.25711   Biso      1.000     O          -0.622317           
         O16       1.0000    0.15740   0.21211   0.12804   Biso      1.000     O          -0.549933           
         O17       1.0000    0.02130   0.18890   0.02853   Biso      1.000     O          -0.49647399999999997          
         O18       1.0000    0.12985   0.93916   0.20287   Biso      1.000     O          -0.5604359999999999           
         O19       1.0000    0.96620   0.96700   0.13223   Biso      1.000     O          -0.505969           
         O20       1.0000    0.89630   0.18100   0.62803   Biso      1.000     O          -0.51315  
         O21       1.0000    0.79994   0.35871   0.75711   Biso      1.000     O          -0.622317           
         O22       1.0000    0.70006   0.85871   0.74289   Biso      1.000     O          -0.622316           
         O23       1.0000    0.69120   0.01500   0.65360   Biso      1.000     O          -0.571665           
         O24       1.0000    0.84260   0.78789   0.87196   Biso      1.000     O          -0.549933           
         O25       1.0000    0.97870   0.81110   0.97147   Biso      1.000     O          -0.49647600000000003          
         O26       1.0000    0.81252   0.02820   0.98258   Biso      1.000     O          -0.551452           
         O27       1.0000    0.65480   0.08320   0.04602   Biso      1.000     O          -0.5140939999999999           
         O28       1.0000    0.87015   0.06084   0.79713   Biso      1.000     O          -0.5604319999999999           
         O29       1.0000    0.03380   0.03300   0.86777   Biso      1.000     O          -0.5059680000000001           
         O30       1.0000    0.59652   0.87053   0.92210   Biso      1.000     O          -0.54311  
         O31       1.0000    0.60370   0.68100   0.87197   Biso      1.000     O          -0.513155           
         O32       1.0000    0.65017   0.12480   0.82149   Biso      1.000     O          -0.616416           
         O33       1.0000    0.49570   0.12770   0.89849   Biso      1.000     O          -0.575811           
         O34       1.0000    0.99570   0.37230   0.39849   Biso      1.000     O          -0.575811           
         O35       1.0000    0.15017   0.37520   0.32149   Biso      1.000     O          -0.616416           
         O36       1.0000    0.10370   0.81900   0.37197   Biso      1.000     O          -0.5131560000000001           
         O37       1.0000    0.09652   0.62947   0.42210   Biso      1.000     O          -0.54311  
         O38       1.0000    0.15480   0.41680   0.54602   Biso      1.000     O          -0.5140939999999999           
         O39       1.0000    0.31252   0.47180   0.48258   Biso      1.000     O          -0.551452           
         O40       1.0000    0.19120   0.48500   0.15360   Biso      1.000     O          -0.571665           
         O41       1.0000    0.46620   0.53300   0.63223   Biso      1.000     O          -0.505969           
         O42       1.0000    0.62985   0.56084   0.70287   Biso      1.000     O          -0.5604359999999999           
         O43       1.0000    0.20006   0.64129   0.24289   Biso      1.000     O          -0.622315           
         O44       1.0000    0.34260   0.71211   0.37196   Biso      1.000     O          -0.549933           
         O45       1.0000    0.52130   0.31110   0.52853   Biso      1.000     O          -0.49647399999999997          
         O46       1.0000    0.65740   0.28789   0.62804   Biso      1.000     O          -0.549934           
         O47       1.0000    0.37015   0.43916   0.29713   Biso      1.000     O          -0.5604319999999999           
         O48       1.0000    0.47870   0.68890   0.47147   Biso      1.000     O          -0.49647600000000003 