
##########################################################################
#               Crystallographic Information Format file
#               Produced by PyCifRW module
#
#  This is a CIF file.  CIF has been adopted by the International
#  Union of Crystallography as the standard for data archiving and
#  transmission.
#
#  For information on this file format, follow the CIF links at
#  http://www.iucr.org
##########################################################################

data_image0

_cell_length_a                          8.0987
_cell_length_b                          9.7728
_cell_length_c                          11.1806
_cell_angle_alpha                       97.1269
_cell_angle_beta                        90
_cell_angle_gamma                       114.478
_symmetry_space_group_name_H-M          'P 1'
_symmetry_int_tables_number             1
loop_
  _symmetry_equiv_pos_as_xyz
         'x, y, z' 
loop_
  _atom_site_label
  _atom_site_occupancy
  _atom_site_fract_x
  _atom_site_fract_y
  _atom_site_fract_z
  _atom_site_thermal_displace_type
  _atom_site_B_iso_or_equiv
  _atom_site_type_symbol
  _atom_site_charge
         C1        1.0000    0.65070   0.11600   0.06540   Biso      1.000     C          -0.051329           
         C2        1.0000    0.36158   0.69756   0.07520   Biso      1.000     C          0.6488430000000001  
         C3        1.0000    0.46530   0.11600   0.56540   Biso      1.000     C          -0.052069000000000004         
         C4        1.0000    0.57999   0.14818   0.46940   Biso      1.000     C          -0.047706           
         C5        1.0000    0.38672   0.96904   0.59280   Biso      1.000     C          -0.14774  
         C6        1.0000    0.66402   0.30244   0.42480   Biso      1.000     C          0.64774   
         C7        1.0000    0.80470   0.23920   0.14440   Biso      1.000     C          0.598696  
         C8        1.0000    0.41768   0.03096   0.90720   Biso      1.000     C          -0.14715699999999998          
         C9        1.0000    0.56819   0.14818   0.96940   Biso      1.000     C          -0.048382           
         C10       1.0000    0.63842   0.30244   0.92480   Biso      1.000     C          0.648844  
         C11       1.0000    0.56550   0.76080   0.35560   Biso      1.000     C          0.598673  
         C12       1.0000    0.53470   0.88400   0.43460   Biso      1.000     C          -0.052069000000000004         
         C13       1.0000    0.42001   0.85182   0.53060   Biso      1.000     C          -0.047704           
         C14       1.0000    0.61328   0.03096   0.40720   Biso      1.000     C          -0.147738           
         C15       1.0000    0.33598   0.69756   0.57520   Biso      1.000     C          0.64774   
         C16       1.0000    0.58232   0.96904   0.09280   Biso      1.000     C          -0.147154           
         C17       1.0000    0.43181   0.85182   0.03060   Biso      1.000     C          -0.048382999999999995         
         C18       1.0000    0.43450   0.23920   0.64440   Biso      1.000     C          0.5986739999999999  
         C19       1.0000    0.19530   0.76080   0.85560   Biso      1.000     C          0.598695  
         C20       1.0000    0.34930   0.88400   0.93460   Biso      1.000     C          -0.051325           
         H1        1.0000    0.99520   0.25360   0.66090   Biso      1.000     H          0.472175  
         H2        1.0000    0.09620   0.35000   0.58850   Biso      1.000     H          0.457092  
         H3        1.0000    0.74160   0.74640   0.83910   Biso      1.000     H          0.47096099999999996           
         H4        1.0000    0.74620   0.65000   0.91150   Biso      1.000     H          0.457175  
         H5        1.0000    0.30830   0.94780   0.65550   Biso      1.000     H          0.12726800000000002           
         H6        1.0000    0.36050   0.05220   0.84450   Biso      1.000     H          0.12662400000000001           
         H7        1.0000    0.90380   0.65000   0.41150   Biso      1.000     H          0.457092  
         H8        1.0000    0.63950   0.94780   0.15550   Biso      1.000     H          0.12662400000000001           
         H9        1.0000    0.25840   0.25360   0.16090   Biso      1.000     H          0.47096099999999996           
         H10       1.0000    0.25380   0.35000   0.08850   Biso      1.000     H          0.457176  
         H11       1.0000    0.69170   0.05220   0.34450   Biso      1.000     H          0.12726800000000002           
         H12       1.0000    0.00480   0.74640   0.33910   Biso      1.000     H          0.472175  
         O1        1.0000    0.72113   0.65366   0.83860   Biso      1.000     O          -0.881446           
         O2        1.0000    0.83008   0.37536   0.14280   Biso      1.000     O          -0.6915789999999999           
         O3        1.0000    0.89852   0.20124   0.21130   Biso      1.000     O          -0.616572           
         O4        1.0000    0.55581   0.38442   0.95510   Biso      1.000     O          -0.729089           
         O5        1.0000    0.69728   0.79876   0.28870   Biso      1.000     O          -0.61602  
         O6        1.0000    0.17139   0.61558   0.54490   Biso      1.000     O          -0.728445           
         O7        1.0000    0.45472   0.62464   0.35720   Biso      1.000     O          -0.6917840000000001           
         O8        1.0000    0.56674   0.33348   0.35560   Biso      1.000     O          -0.618379           
         O9        1.0000    0.93253   0.65366   0.33860   Biso      1.000     O          -0.882826           
         O10       1.0000    0.76674   0.33348   0.85560   Biso      1.000     O          -0.618751           
         O11       1.0000    0.82861   0.38442   0.45510   Biso      1.000     O          -0.728445           
         O12       1.0000    0.27887   0.34634   0.16140   Biso      1.000     O          -0.881446           
         O13       1.0000    0.54528   0.37536   0.64280   Biso      1.000     O          -0.6917840000000001           
         O14       1.0000    0.06747   0.34634   0.66140   Biso      1.000     O          -0.882826           
         O15       1.0000    0.23326   0.66652   0.14440   Biso      1.000     O          -0.618751           
         O16       1.0000    0.44419   0.61558   0.04490   Biso      1.000     O          -0.729089           
         O17       1.0000    0.10148   0.79876   0.78870   Biso      1.000     O          -0.616572           
         O18       1.0000    0.16992   0.62464   0.85720   Biso      1.000     O          -0.6915789999999999           
         O19       1.0000    0.43326   0.66652   0.64440   Biso      1.000     O          -0.61838  
         O20       1.0000    0.30272   0.20124   0.71130   Biso      1.000     O          -0.61602  
         Sr1       1.0000    0.62460   0.51716   0.18609   Biso      1.000     Sr          1.481961  
         Sr2       1.0000    0.10744   0.48284   0.31391   Biso      1.000     Sr          1.482062  
         Sr3       1.0000    0.37540   0.48284   0.81391   Biso      1.000     Sr          1.481962  
         Sr4       1.0000    0.89256   0.51716   0.68609   Biso      1.000     Sr          1.482061 