
##########################################################################
#               Crystallographic Information Format file
#               Produced by PyCifRW module
#
#  This is a CIF file.  CIF has been adopted by the International
#  Union of Crystallography as the standard for data archiving and
#  transmission.
#
#  For information on this file format, follow the CIF links at
#  http://www.iucr.org
##########################################################################

data_image0

_cell_length_a                          11.341
_cell_length_b                          12.23
_cell_length_c                          15.251
_cell_angle_alpha                       93.34
_cell_angle_beta                        107.371
_cell_angle_gamma                       117.031
_symmetry_space_group_name_H-M          'P 1'
_symmetry_int_tables_number             1
loop_
  _symmetry_equiv_pos_as_xyz
         'x, y, z' 
loop_
  _atom_site_label
  _atom_site_occupancy
  _atom_site_fract_x
  _atom_site_fract_y
  _atom_site_fract_z
  _atom_site_thermal_displace_type
  _atom_site_B_iso_or_equiv
  _atom_site_type_symbol
  _atom_site_charge
         C1        1.0000    0.65420   0.87150   0.93120   Biso      1.000     C          0.06124299999999999           
         C2        1.0000    0.92020   0.30010   0.54760   Biso      1.000     C          -0.14736400000000002          
         C3        1.0000    0.49580   0.71710   0.98590   Biso      1.000     C          -0.14435599999999998          
         C4        1.0000    0.02330   0.26810   0.58670   Biso      1.000     C          -0.10722000000000001          
         C5        1.0000    0.62430   0.46800   0.23570   Biso      1.000     C          -0.105296           
         C6        1.0000    0.73990   0.77660   0.03570   Biso      1.000     C          -0.040774           
         C7        1.0000    0.50860   0.48410   0.20130   Biso      1.000     C          -0.054803           
         C8        1.0000    0.98250   0.31420   0.41180   Biso      1.000     C          -0.035358999999999995         
         C9        1.0000    0.52120   0.80280   0.93220   Biso      1.000     C          -0.101275           
         C10       1.0000    0.51870   0.34550   0.33450   Biso      1.000     C          0.052733  
         C11       1.0000    0.63070   0.39800   0.30240   Biso      1.000     C          -0.05878200000000001          
         C12       1.0000    0.02010   0.23330   0.14820   Biso      1.000     C          0.31358400000000003           
         C13       1.0000    0.75660   0.37840   0.33310   Biso      1.000     C          0.5010220000000001  
         C14       1.0000    0.60630   0.70210   0.03980   Biso      1.000     C          0.229845  
         C15       1.0000    0.12200   0.02540   0.23610   Biso      1.000     C          0.288503  
         C16       1.0000    0.40260   0.42880   0.23650   Biso      1.000     C          0.08907999999999999           
         C17       1.0000    0.10310   0.26190   0.53760   Biso      1.000     C          0.047560000000000005          
         C18       1.0000    0.46980   0.61470   0.44790   Biso      1.000     C          0.283323  
         C19       1.0000    0.48130   0.65450   0.66550   Biso      1.000     C          0.052733  
         C20       1.0000    0.53020   0.38530   0.55210   Biso      1.000     C          0.28332199999999996           
         C21       1.0000    0.36930   0.60200   0.69760   Biso      1.000     C          -0.058785000000000004         
         C22       1.0000    0.47880   0.19720   0.06780   Biso      1.000     C          -0.101311           
         C23       1.0000    0.34580   0.12850   0.06880   Biso      1.000     C          0.061259  
         C24       1.0000    0.07980   0.69990   0.45240   Biso      1.000     C          -0.147365           
         C25       1.0000    0.50420   0.28290   0.01410   Biso      1.000     C          -0.144332           
         C26       1.0000    0.97670   0.73190   0.41330   Biso      1.000     C          -0.10721900000000001          
         C27       1.0000    0.37570   0.53200   0.76430   Biso      1.000     C          -0.105294           
         C28       1.0000    0.26010   0.22340   0.96430   Biso      1.000     C          -0.040773000000000004         
         C29       1.0000    0.49140   0.51590   0.79870   Biso      1.000     C          -0.054803           
         C30       1.0000    0.01750   0.68580   0.58820   Biso      1.000     C          -0.035358999999999995         
         C31       1.0000    0.10220   0.67730   0.54240   Biso      1.000     C          0.24330700000000002           
         C32       1.0000    0.51260   0.44450   0.87190   Biso      1.000     C          0.489179  
         C33       1.0000    0.89690   0.73810   0.46240   Biso      1.000     C          0.047560000000000005          
         C34       1.0000    0.59740   0.57120   0.76350   Biso      1.000     C          0.08907999999999999           
         C35       1.0000    0.87800   0.97460   0.76390   Biso      1.000     C          0.288503  
         C36       1.0000    0.39370   0.29790   0.96020   Biso      1.000     C          0.22984200000000002           
         C37       1.0000    0.24340   0.62160   0.66690   Biso      1.000     C          0.5010220000000001  
         C38       1.0000    0.97990   0.76670   0.85180   Biso      1.000     C          0.31358400000000003           
         C39       1.0000    0.48740   0.55550   0.12810   Biso      1.000     C          0.489179  
         C40       1.0000    0.89780   0.32270   0.45760   Biso      1.000     C          0.243306  
         Cd1       1.0000    0.23232   0.29727   0.37193   Biso      1.000     Cd          0.728132  
         Cd2       1.0000    0.00000   0.00000   0.00000   Biso      1.000     Cd          0.718241  
         Cd3       1.0000    0.76768   0.70273   0.62807   Biso      1.000     Cd          0.728132  
         H1        1.0000    0.55210   0.18530   0.10400   Biso      1.000     H          0.130123  
         H2        1.0000    0.67110   0.61140   0.12400   Biso      1.000     H          0.303809  
         H3        1.0000    0.52240   0.29810   0.37980   Biso      1.000     H          0.096527  
         H4        1.0000    0.74310   0.35140   0.45210   Biso      1.000     H          0.28238   
         H5        1.0000    0.32350   0.43910   0.21340   Biso      1.000     H          0.10091499999999999           
         H6        1.0000    0.17390   0.24230   0.56520   Biso      1.000     H          0.101884  
         H7        1.0000    0.96930   0.33040   0.35180   Biso      1.000     H          0.11327000000000001           
         H8        1.0000    0.81540   0.76690   0.07130   Biso      1.000     H          0.10991   
         H9        1.0000    0.69870   0.50450   0.21390   Biso      1.000     H          0.119131  
         H10       1.0000    0.03800   0.25070   0.64630   Biso      1.000     H          0.12364800000000001           
         H11       1.0000    0.40490   0.66880   0.98650   Biso      1.000     H          0.137273  
         H12       1.0000    0.86640   0.30640   0.58110   Biso      1.000     H          0.131857  
         H13       1.0000    0.33090   0.07150   0.10760   Biso      1.000     H          0.0942    
         H14       1.0000    0.44790   0.81470   0.89600   Biso      1.000     H          0.13012   
         H15       1.0000    0.66910   0.92850   0.89240   Biso      1.000     H          0.094201  
         H16       1.0000    0.13360   0.69360   0.41890   Biso      1.000     H          0.131858  
         H17       1.0000    0.96200   0.74930   0.35370   Biso      1.000     H          0.123647  
         H18       1.0000    0.30130   0.49550   0.78610   Biso      1.000     H          0.119131  
         H19       1.0000    0.18460   0.23310   0.92870   Biso      1.000     H          0.109911  
         H20       1.0000    0.59510   0.33120   0.01350   Biso      1.000     H          0.137271  
         H21       1.0000    0.82610   0.75770   0.43480   Biso      1.000     H          0.101884  
         H22       1.0000    0.67650   0.56090   0.78660   Biso      1.000     H          0.10091499999999999           
         H23       1.0000    0.25690   0.64860   0.54790   Biso      1.000     H          0.28238   
         H24       1.0000    0.47760   0.70190   0.62020   Biso      1.000     H          0.096528  
         H25       1.0000    0.32890   0.38860   0.87600   Biso      1.000     H          0.30380799999999997           
         H26       1.0000    0.03070   0.66960   0.64820   Biso      1.000     H          0.11327000000000001           
         N1        1.0000    0.92320   0.00410   0.84540   Biso      1.000     N          -0.45137  
         N2        1.0000    0.07680   0.99590   0.15460   Biso      1.000     N          -0.45137  
         N3        1.0000    0.91740   0.71640   0.54990   Biso      1.000     N          -0.190403           
         N4        1.0000    0.59420   0.63840   0.69830   Biso      1.000     N          -0.185065           
         N5        1.0000    0.20800   0.64900   0.58140   Biso      1.000     N          -0.417337           
         N6        1.0000    0.40190   0.37920   0.89890   Biso      1.000     N          -0.418916           
         N7        1.0000    0.23670   0.13900   0.01710   Biso      1.000     N          -0.182586           
         N8        1.0000    0.93300   0.73800   0.77080   Biso      1.000     N          -0.471444           
         N9        1.0000    0.06700   0.26200   0.22920   Biso      1.000     N          -0.471444           
         N10       1.0000    0.41040   0.34360   0.51580   Biso      1.000     N          -0.474078           
         N11       1.0000    0.76330   0.86100   0.98290   Biso      1.000     N          -0.182584           
         N12       1.0000    0.08260   0.28360   0.45010   Biso      1.000     N          -0.190403           
         N13       1.0000    0.59810   0.62080   0.10110   Biso      1.000     N          -0.418916           
         N14       1.0000    0.58960   0.65640   0.48420   Biso      1.000     N          -0.474078           
         N15       1.0000    0.40580   0.36160   0.30170   Biso      1.000     N          -0.185065           
         N16       1.0000    0.79200   0.35100   0.41860   Biso      1.000     N          -0.417337           
         O1        1.0000    0.62720   0.44940   0.90700   Biso      1.000     O          -0.454452           
         O2        1.0000    0.37280   0.55060   0.09300   Biso      1.000     O          -0.454452           
         O3        1.0000    0.82060   0.38720   0.28240   Biso      1.000     O          -0.44560299999999997          
         O4        1.0000    0.17940   0.61280   0.71760   Biso      1.000     O          -0.44560299999999997          
         S1        1.0000    0.04600   0.80310   0.96747   Biso      1.000     S          -0.351221           
         S2        1.0000    0.81790   0.93940   0.64803   Biso      1.000     S          -0.34626999999999997          
         S3        1.0000    0.70199   0.44635   0.60510   Biso      1.000     S          -0.347582           
         S4        1.0000    0.95400   0.19690   0.03253   Biso      1.000     S          -0.351222           
         S5        1.0000    0.18210   0.06060   0.35197   Biso      1.000     S          -0.34626999999999997          
         S6        1.0000    0.29801   0.55365   0.39490   Biso      1.000     S          -0.347582 