
##########################################################################
#               Crystallographic Information Format file
#               Produced by PyCifRW module
#
#  This is a CIF file.  CIF has been adopted by the International
#  Union of Crystallography as the standard for data archiving and
#  transmission.
#
#  For information on this file format, follow the CIF links at
#  http://www.iucr.org
##########################################################################

data_image0

_cell_length_a                          11.44
_cell_length_b                          13.7557
_cell_length_c                          13.78
_cell_angle_alpha                       103.234
_cell_angle_beta                        90
_cell_angle_gamma                       114.572
_symmetry_space_group_name_H-M          'P 1'
_symmetry_int_tables_number             1
loop_
  _symmetry_equiv_pos_as_xyz
         'x, y, z' 
loop_
  _atom_site_label
  _atom_site_occupancy
  _atom_site_fract_x
  _atom_site_fract_y
  _atom_site_fract_z
  _atom_site_thermal_displace_type
  _atom_site_B_iso_or_equiv
  _atom_site_type_symbol
  _atom_site_charge
         C1        1.0000    0.66730   0.35180   0.12170   Biso      1.000     C          0.127073  
         C2        1.0000    0.82700   0.29340   0.12770   Biso      1.000     C          0.091388  
         C3        1.0000    0.57260   0.24920   0.12390   Biso      1.000     C          -0.190025           
         C4        1.0000    0.60940   0.16620   0.12800   Biso      1.000     C          0.189411  
         C5        1.0000    0.25050   0.74640   0.13130   Biso      1.000     C          0.10319500000000001           
         C6        1.0000    0.34920   0.84540   0.12790   Biso      1.000     C          -0.202979           
         C7        1.0000    0.31810   0.93160   0.12490   Biso      1.000     C          0.193375  
         C8        1.0000    0.19050   0.91480   0.12600   Biso      1.000     C          -0.202522           
         C9        1.0000    0.09820   0.81240   0.12930   Biso      1.000     C          0.10343800000000002           
         C10       1.0000    0.70970   0.54020   0.41570   Biso      1.000     C          0.550855  
         C11       1.0000    0.96930   0.62040   0.34170   Biso      1.000     C          0.5672590000000001  
         C12       1.0000    0.32810   0.37580   0.04810   Biso      1.000     C          0.086623  
         C13       1.0000    0.23920   0.40600   0.01320   Biso      1.000     C          0.028413  
         C14       1.0000    0.28660   0.35820   0.85420   Biso      1.000     C          0.046655  
         C15       1.0000    0.74060   0.19000   0.13060   Biso      1.000     C          -0.21157199999999998          
         C16       1.0000    0.37940   0.33460   0.88970   Biso      1.000     C          0.042053  
         C17       1.0000    0.16950   0.45980   0.08430   Biso      1.000     C          0.553028  
         C18       1.0000    0.28580   0.18760   0.37070   Biso      1.000     C          0.10560399999999999           
         C19       1.0000    0.27570   0.08520   0.37400   Biso      1.000     C          -0.203164           
         C20       1.0000    0.38650   0.06840   0.37510   Biso      1.000     C          0.19264900000000001           
         C21       1.0000    0.50380   0.15460   0.37210   Biso      1.000     C          -0.203698           
         C22       1.0000    0.50410   0.25360   0.36870   Biso      1.000     C          0.103559  
         C23       1.0000    0.44320   0.83380   0.37200   Biso      1.000     C          0.18879200000000002           
         C24       1.0000    0.32340   0.75080   0.37610   Biso      1.000     C          -0.190531           
         C25       1.0000    0.31550   0.64820   0.37830   Biso      1.000     C          0.126199  
         C26       1.0000    0.53360   0.70660   0.37230   Biso      1.000     C          0.090645  
         C27       1.0000    0.55060   0.81000   0.36940   Biso      1.000     C          -0.210829           
         C28       1.0000    0.95230   0.62420   0.45190   Biso      1.000     C          0.08516900000000001           
         C29       1.0000    0.83320   0.59400   0.48680   Biso      1.000     C          0.029992  
         C30       1.0000    0.34890   0.37960   0.15830   Biso      1.000     C          0.566876  
         C31       1.0000    0.67190   0.62420   0.95190   Biso      1.000     C          0.086623  
         C32       1.0000    0.76080   0.59400   0.98680   Biso      1.000     C          0.028413  
         C33       1.0000    0.71340   0.64180   0.14580   Biso      1.000     C          0.046655  
         C34       1.0000    0.25940   0.81000   0.86940   Biso      1.000     C          -0.21158000000000002          
         C35       1.0000    0.17300   0.70660   0.87230   Biso      1.000     C          0.091396  
         C36       1.0000    0.33270   0.64820   0.87830   Biso      1.000     C          0.127073  
         C37       1.0000    0.42740   0.75080   0.87610   Biso      1.000     C          -0.190025           
         C38       1.0000    0.39060   0.83380   0.87200   Biso      1.000     C          0.189411  
         C39       1.0000    0.74950   0.25360   0.86870   Biso      1.000     C          0.10319500000000001           
         C40       1.0000    0.65080   0.15460   0.87210   Biso      1.000     C          -0.202979           
         C41       1.0000    0.68190   0.06840   0.87510   Biso      1.000     C          0.193375  
         C42       1.0000    0.80950   0.08520   0.87400   Biso      1.000     C          -0.202522           
         C43       1.0000    0.90180   0.18760   0.87070   Biso      1.000     C          0.103439  
         C44       1.0000    0.29030   0.45980   0.58430   Biso      1.000     C          0.550856  
         C45       1.0000    0.03070   0.37960   0.65830   Biso      1.000     C          0.567258  
         C46       1.0000    0.95520   0.33460   0.38970   Biso      1.000     C          0.041375  
         C47       1.0000    0.07160   0.35820   0.35420   Biso      1.000     C          0.046306  
         C48       1.0000    0.16680   0.40600   0.51320   Biso      1.000     C          0.029983  
         C49       1.0000    0.04770   0.37580   0.54810   Biso      1.000     C          0.085178  
         C50       1.0000    0.44940   0.19000   0.63060   Biso      1.000     C          -0.210842           
         C51       1.0000    0.46640   0.29340   0.62770   Biso      1.000     C          0.090657  
         C52       1.0000    0.68450   0.35180   0.62170   Biso      1.000     C          0.126198  
         C53       1.0000    0.67660   0.24920   0.62390   Biso      1.000     C          -0.190527           
         C54       1.0000    0.55680   0.16620   0.62800   Biso      1.000     C          0.18878399999999998           
         C55       1.0000    0.49590   0.74640   0.63130   Biso      1.000     C          0.103555  
         C56       1.0000    0.49620   0.84540   0.62790   Biso      1.000     C          -0.203697           
         C57       1.0000    0.61350   0.93160   0.62490   Biso      1.000     C          0.192659  
         C58       1.0000    0.72430   0.91480   0.62600   Biso      1.000     C          -0.203165           
         C59       1.0000    0.71420   0.81240   0.62930   Biso      1.000     C          0.10560599999999999           
         C60       1.0000    0.83050   0.54020   0.91570   Biso      1.000     C          0.553028  
         C61       1.0000    0.65110   0.62040   0.84170   Biso      1.000     C          0.566876  
         C62       1.0000    0.62060   0.66540   0.11030   Biso      1.000     C          0.042053  
         C63       1.0000    0.92840   0.64180   0.64580   Biso      1.000     C          0.046285  
         C64       1.0000    0.04480   0.66540   0.61030   Biso      1.000     C          0.041397  
         Cd1       1.0000    0.40249   0.44542   0.36860   Biso      1.000     Cd          0.8443639999999999  
         Cd2       1.0000    0.59751   0.55458   0.63140   Biso      1.000     Cd          0.8443639999999999  
         Cd3       1.0000    0.95707   0.55458   0.13140   Biso      1.000     Cd          0.844691  
         Cd4       1.0000    0.04293   0.44542   0.86860   Biso      1.000     Cd          0.844692  
         H1        1.0000    0.27200   0.68720   0.13310   Biso      1.000     H          0.098196  
         H2        1.0000    0.43620   0.85460   0.12750   Biso      1.000     H          0.134332  
         H3        1.0000    0.16700   0.97320   0.12450   Biso      1.000     H          0.143629  
         H4        1.0000    0.01040   0.80120   0.12940   Biso      1.000     H          0.095973  
         H5        1.0000    0.11830   0.68660   0.65610   Biso      1.000     H          0.095324  
         H6        1.0000    0.92420   0.65240   0.71610   Biso      1.000     H          0.10745299999999999           
         H7        1.0000    0.63400   0.86480   0.36560   Biso      1.000     H          0.137562  
         H8        1.0000    0.60720   0.69100   0.37120   Biso      1.000     H          0.100583  
         H9        1.0000    0.24800   0.76380   0.37730   Biso      1.000     H          0.13331500000000002           
         H10       1.0000    0.48420   0.23620   0.12270   Biso      1.000     H          0.13251500000000002           
         H11       1.0000    0.58480   0.31280   0.36690   Biso      1.000     H          0.098576  
         H12       1.0000    0.58160   0.14540   0.37250   Biso      1.000     H          0.134431  
         H13       1.0000    0.19380   0.02680   0.37550   Biso      1.000     H          0.143978  
         H14       1.0000    0.20920   0.19880   0.37060   Biso      1.000     H          0.094716  
         H15       1.0000    0.43170   0.31340   0.84390   Biso      1.000     H          0.095063  
         H16       1.0000    0.27180   0.34760   0.78390   Biso      1.000     H          0.107676  
         H17       1.0000    0.23080   0.86480   0.86560   Biso      1.000     H          0.137401  
         H18       1.0000    0.23310   0.59140   0.38110   Biso      1.000     H          0.092961  
         H19       1.0000    0.64170   0.40860   0.11890   Biso      1.000     H          0.092163  
         H20       1.0000    0.08380   0.69100   0.87120   Biso      1.000     H          0.100204  
         H21       1.0000    0.76920   0.13520   0.13440   Biso      1.000     H          0.137399  
         H22       1.0000    0.91620   0.30900   0.12880   Biso      1.000     H          0.100204  
         H23       1.0000    0.35830   0.59140   0.88110   Biso      1.000     H          0.092163  
         H24       1.0000    0.51580   0.76380   0.87730   Biso      1.000     H          0.13251500000000002           
         H25       1.0000    0.72800   0.31280   0.86690   Biso      1.000     H          0.098196  
         H26       1.0000    0.56380   0.14540   0.87250   Biso      1.000     H          0.134331  
         H27       1.0000    0.98960   0.19880   0.87060   Biso      1.000     H          0.095973  
         H28       1.0000    0.88170   0.31340   0.34390   Biso      1.000     H          0.095325  
         H29       1.0000    0.07580   0.34760   0.28390   Biso      1.000     H          0.10745199999999999           
         H30       1.0000    0.36600   0.13520   0.63440   Biso      1.000     H          0.13756   
         H31       1.0000    0.83300   0.02680   0.87550   Biso      1.000     H          0.14363   
         H32       1.0000    0.76690   0.40860   0.61890   Biso      1.000     H          0.092961  
         H33       1.0000    0.72820   0.65240   0.21610   Biso      1.000     H          0.107676  
         H34       1.0000    0.75200   0.23620   0.62270   Biso      1.000     H          0.13331600000000002           
         H35       1.0000    0.41520   0.68720   0.63310   Biso      1.000     H          0.098576  
         H36       1.0000    0.41840   0.85460   0.62750   Biso      1.000     H          0.134429  
         H37       1.0000    0.80620   0.97320   0.62450   Biso      1.000     H          0.143979  
         H38       1.0000    0.79080   0.80120   0.62940   Biso      1.000     H          0.094716  
         H39       1.0000    0.56830   0.68660   0.15610   Biso      1.000     H          0.095063  
         H40       1.0000    0.39280   0.30900   0.62880   Biso      1.000     H          0.100583  
         N1        1.0000    0.60170   0.72780   0.63230   Biso      1.000     N          -0.200995           
         N2        1.0000    0.58260   0.37480   0.62320   Biso      1.000     N          -0.208012           
         N3        1.0000    0.63210   0.04000   0.61950   Biso      1.000     N          -0.10304400000000001          
         N4        1.0000    0.53460   0.05620   0.62920   Biso      1.000     N          -0.11633900000000001          
         N5        1.0000    0.20780   0.62520   0.87680   Biso      1.000     N          -0.207887           
         N6        1.0000    0.18090   0.39600   0.41460   Biso      1.000     N          -0.21146399999999999          
         N7        1.0000    0.87390   0.27220   0.86770   Biso      1.000     N          -0.200462           
         N8        1.0000    0.59210   0.96000   0.88050   Biso      1.000     N          -0.103074           
         N9        1.0000    0.78490   0.60400   0.08540   Biso      1.000     N          -0.212035           
         N10       1.0000    0.47840   0.94380   0.87080   Biso      1.000     N          -0.116693           
         N11       1.0000    0.93940   0.34000   0.48660   Biso      1.000     N          -0.23931  
         N12       1.0000    0.59940   0.66000   0.01340   Biso      1.000     N          -0.240162           
         N13       1.0000    0.79220   0.37480   0.12320   Biso      1.000     N          -0.20788600000000002          
         N14       1.0000    0.40790   0.04000   0.11950   Biso      1.000     N          -0.103074           
         N15       1.0000    0.52160   0.05620   0.12920   Biso      1.000     N          -0.116693           
         N16       1.0000    0.40060   0.34000   0.98660   Biso      1.000     N          -0.240162           
         N17       1.0000    0.39830   0.27220   0.36770   Biso      1.000     N          -0.200996           
         N18       1.0000    0.41740   0.62520   0.37680   Biso      1.000     N          -0.208011           
         N19       1.0000    0.21510   0.39600   0.91460   Biso      1.000     N          -0.212035           
         N20       1.0000    0.46540   0.94380   0.37080   Biso      1.000     N          -0.116444           
         N21       1.0000    0.06060   0.66000   0.51340   Biso      1.000     N          -0.239312           
         N22       1.0000    0.81910   0.60400   0.58540   Biso      1.000     N          -0.211463           
         N23       1.0000    0.12610   0.72780   0.13230   Biso      1.000     N          -0.200462           
         N24       1.0000    0.36790   0.96000   0.38050   Biso      1.000     N          -0.10294  
         O1        1.0000    0.55070   0.54800   0.79230   Biso      1.000     O          -0.541975           
         O2        1.0000    0.04660   0.30820   0.69050   Biso      1.000     O          -0.5994729999999999           
         O3        1.0000    0.00270   0.45200   0.70770   Biso      1.000     O          -0.5423   
         O4        1.0000    0.92480   0.53080   0.95470   Biso      1.000     O          -0.58165  
         O5        1.0000    0.79000   0.50560   0.82840   Biso      1.000     O          -0.502767           
         O6        1.0000    0.73840   0.69180   0.80950   Biso      1.000     O          -0.599249           
         O7        1.0000    0.60600   0.53080   0.45470   Biso      1.000     O          -0.580855           
         O8        1.0000    0.21000   0.49440   0.17160   Biso      1.000     O          -0.502767           
         O9        1.0000    0.95340   0.69180   0.30950   Biso      1.000     O          -0.599474           
         O10       1.0000    0.99730   0.54800   0.29230   Biso      1.000     O          -0.5423   
         O11       1.0000    0.07520   0.46920   0.04530   Biso      1.000     O          -0.581649           
         O12       1.0000    0.26160   0.30820   0.19050   Biso      1.000     O          -0.599249           
         O13       1.0000    0.44930   0.45200   0.20770   Biso      1.000     O          -0.541975           
         O14       1.0000    0.28440   0.49440   0.67160   Biso      1.000     O          -0.5019710000000001           
         O15       1.0000    0.71560   0.50560   0.32840   Biso      1.000     O          -0.5019710000000001           
         O16       1.0000    0.39400   0.46920   0.54530   Biso      1.000     O          -0.580855 