
##########################################################################
#               Crystallographic Information Format file
#               Produced by PyCifRW module
#
#  This is a CIF file.  CIF has been adopted by the International
#  Union of Crystallography as the standard for data archiving and
#  transmission.
#
#  For information on this file format, follow the CIF links at
#  http://www.iucr.org
##########################################################################

data_image0

_cell_length_a                          10.3604
_cell_length_b                          10.3604
_cell_length_c                          14.5059
_cell_angle_alpha                       90
_cell_angle_beta                        90
_cell_angle_gamma                       90
_symmetry_space_group_name_H-M          'P 1'
_symmetry_int_tables_number             1
loop_
  _symmetry_equiv_pos_as_xyz
         'x, y, z' 
loop_
  _atom_site_label
  _atom_site_occupancy
  _atom_site_fract_x
  _atom_site_fract_y
  _atom_site_fract_z
  _atom_site_thermal_displace_type
  _atom_site_B_iso_or_equiv
  _atom_site_type_symbol
  _atom_site_charge
         C1        1.0000    0.18900   0.91720   0.91060   Biso      1.000     C          0.681902  
         C2        1.0000    0.95880   0.39780   0.92300   Biso      1.000     C          -0.1022   
         C3        1.0000    0.96010   0.26250   0.92200   Biso      1.000     C          -0.026374           
         C4        1.0000    0.18900   0.08280   0.58940   Biso      1.000     C          0.681902  
         C5        1.0000    0.39780   0.04120   0.67300   Biso      1.000     C          -0.102199           
         C6        1.0000    0.26250   0.03990   0.67200   Biso      1.000     C          -0.026374           
         C7        1.0000    0.81100   0.91720   0.08940   Biso      1.000     C          0.681902  
         C8        1.0000    0.91720   0.18900   0.83940   Biso      1.000     C          0.681902  
         C9        1.0000    0.60220   0.95880   0.17300   Biso      1.000     C          -0.102199           
         C10       1.0000    0.91720   0.81100   0.66060   Biso      1.000     C          0.6819029999999999  
         C11       1.0000    0.95880   0.60220   0.57700   Biso      1.000     C          -0.1022   
         C12       1.0000    0.96010   0.73750   0.57800   Biso      1.000     C          -0.026374           
         C13       1.0000    0.08280   0.18900   0.16060   Biso      1.000     C          0.681902  
         C14       1.0000    0.04120   0.39780   0.07700   Biso      1.000     C          -0.1022   
         C15       1.0000    0.03990   0.26250   0.07800   Biso      1.000     C          -0.026374           
         C16       1.0000    0.73750   0.96010   0.17200   Biso      1.000     C          -0.026374           
         C17       1.0000    0.03990   0.73750   0.42200   Biso      1.000     C          -0.026374           
         C18       1.0000    0.04120   0.60220   0.42300   Biso      1.000     C          -0.1022   
         C19       1.0000    0.08280   0.81100   0.33940   Biso      1.000     C          0.681902  
         C20       1.0000    0.80060   0.00000   0.25000   Biso      1.000     C          -0.11293199999999999          
         C21       1.0000    0.53710   0.00000   0.25000   Biso      1.000     C          -0.031475           
         C22       1.0000    0.38930   0.00000   0.25000   Biso      1.000     C          0.701705  
         C23       1.0000    0.19940   0.00000   0.75000   Biso      1.000     C          -0.11293199999999999          
         C24       1.0000    0.46290   0.00000   0.75000   Biso      1.000     C          -0.031475           
         C25       1.0000    0.61070   0.00000   0.75000   Biso      1.000     C          0.701705  
         C26       1.0000    0.00000   0.19940   0.00000   Biso      1.000     C          -0.112927           
         C27       1.0000    0.00000   0.46290   0.00000   Biso      1.000     C          -0.031469           
         C28       1.0000    0.00000   0.61070   0.00000   Biso      1.000     C          0.701704  
         C29       1.0000    0.00000   0.80060   0.50000   Biso      1.000     C          -0.112927           
         C30       1.0000    0.00000   0.53710   0.50000   Biso      1.000     C          -0.031469           
         C31       1.0000    0.00000   0.38930   0.50000   Biso      1.000     C          0.701704  
         C32       1.0000    0.26250   0.96010   0.82800   Biso      1.000     C          -0.026369999999999998         
         C33       1.0000    0.39780   0.95880   0.82700   Biso      1.000     C          -0.10219500000000001          
         C34       1.0000    0.73750   0.03990   0.32800   Biso      1.000     C          -0.026369           
         C35       1.0000    0.81100   0.08280   0.41060   Biso      1.000     C          0.681902  
         C36       1.0000    0.60220   0.04120   0.32700   Biso      1.000     C          -0.10219500000000001          
         Gd1       1.0000    0.14567   0.14567   0.37500   Biso      1.000     Gd          2.143751  
         Gd2       1.0000    0.14567   0.85433   0.12500   Biso      1.000     Gd          2.143751  
         Gd3       1.0000    0.85433   0.85433   0.87500   Biso      1.000     Gd          2.143751  
         Gd4       1.0000    0.85433   0.14567   0.62500   Biso      1.000     Gd          2.143751  
         H1        1.0000    0.06980   0.55660   0.37170   Biso      1.000     H          0.13156900000000002           
         H2        1.0000    0.93020   0.44340   0.87170   Biso      1.000     H          0.13156900000000002           
         H3        1.0000    0.55660   0.93020   0.12170   Biso      1.000     H          0.13156900000000002           
         H4        1.0000    0.93020   0.55660   0.62830   Biso      1.000     H          0.13156900000000002           
         H5        1.0000    0.44340   0.06980   0.62170   Biso      1.000     H          0.13156900000000002           
         H6        1.0000    0.55660   0.06980   0.37830   Biso      1.000     H          0.13156800000000002           
         H7        1.0000    0.44340   0.93020   0.87830   Biso      1.000     H          0.13156800000000002           
         H8        1.0000    0.00000   0.89040   0.50000   Biso      1.000     H          0.110625  
         H9        1.0000    0.00000   0.10960   0.00000   Biso      1.000     H          0.110625  
         H10       1.0000    0.10960   0.00000   0.75000   Biso      1.000     H          0.110625  
         H11       1.0000    0.06980   0.44340   0.12830   Biso      1.000     H          0.13156900000000002           
         H12       1.0000    0.89040   0.00000   0.25000   Biso      1.000     H          0.110625  
         O1        1.0000    0.10690   0.07240   0.15450   Biso      1.000     O          -0.710731           
         O2        1.0000    0.89310   0.92760   0.65450   Biso      1.000     O          -0.710731           
         O3        1.0000    0.06920   0.66450   0.05860   Biso      1.000     O          -0.691584           
         O4        1.0000    0.08950   0.24750   0.23620   Biso      1.000     O          -0.6884239999999999           
         O5        1.0000    0.24750   0.91050   0.98620   Biso      1.000     O          -0.688425           
         O6        1.0000    0.75250   0.08950   0.48620   Biso      1.000     O          -0.688425           
         O7        1.0000    0.92760   0.10690   0.40450   Biso      1.000     O          -0.710731           
         O8        1.0000    0.66450   0.93080   0.80860   Biso      1.000     O          -0.691584           
         O9        1.0000    0.91050   0.75250   0.73620   Biso      1.000     O          -0.6884239999999999           
         O10       1.0000    0.33550   0.06920   0.30860   Biso      1.000     O          -0.691584           
         O11       1.0000    0.93080   0.33550   0.55860   Biso      1.000     O          -0.691584           
         O12       1.0000    0.91050   0.24750   0.76380   Biso      1.000     O          -0.688425           
         O13       1.0000    0.75250   0.91050   0.01380   Biso      1.000     O          -0.688425           
         O14       1.0000    0.33550   0.93080   0.19140   Biso      1.000     O          -0.691584           
         O15       1.0000    0.07240   0.10690   0.59550   Biso      1.000     O          -0.710731           
         O16       1.0000    0.24750   0.08950   0.51380   Biso      1.000     O          -0.688425           
         O17       1.0000    0.66450   0.06920   0.69140   Biso      1.000     O          -0.691584           
         O18       1.0000    0.89310   0.07240   0.84550   Biso      1.000     O          -0.710731           
         O19       1.0000    0.93080   0.66450   0.94140   Biso      1.000     O          -0.691584           
         O20       1.0000    0.10690   0.92760   0.34550   Biso      1.000     O          -0.710731           
         O21       1.0000    0.08950   0.75250   0.26380   Biso      1.000     O          -0.6884239999999999           
         O22       1.0000    0.06920   0.33550   0.44140   Biso      1.000     O          -0.691584           
         O23       1.0000    0.92760   0.89310   0.09550   Biso      1.000     O          -0.710731           
         O24       1.0000    0.07240   0.89310   0.90450   Biso      1.000     O          -0.710731 