
##########################################################################
#               Crystallographic Information Format file
#               Produced by PyCifRW module
#
#  This is a CIF file.  CIF has been adopted by the International
#  Union of Crystallography as the standard for data archiving and
#  transmission.
#
#  For information on this file format, follow the CIF links at
#  http://www.iucr.org
##########################################################################

data_image0

_cell_length_a                          10.3197
_cell_length_b                          10.3197
_cell_length_c                          14.0444
_cell_angle_alpha                       90
_cell_angle_beta                        90
_cell_angle_gamma                       90
_symmetry_space_group_name_H-M          'P 1'
_symmetry_int_tables_number             1
loop_
  _symmetry_equiv_pos_as_xyz
         'x, y, z' 
loop_
  _atom_site_label
  _atom_site_occupancy
  _atom_site_fract_x
  _atom_site_fract_y
  _atom_site_fract_z
  _atom_site_thermal_displace_type
  _atom_site_B_iso_or_equiv
  _atom_site_type_symbol
  _atom_site_charge
         C1        1.0000    0.52500   0.04400   0.80910   Biso      1.000     C          -0.035175           
         C2        1.0000    0.00890   0.40810   0.14250   Biso      1.000     C          -0.098289           
         C3        1.0000    0.99580   0.27230   0.14060   Biso      1.000     C          -0.014431           
         C4        1.0000    0.01840   0.20760   0.05270   Biso      1.000     C          -0.103429           
         C5        1.0000    0.05370   0.27340   0.97410   Biso      1.000     C          -0.025612           
         C6        1.0000    0.06820   0.40730   0.97720   Biso      1.000     C          -0.095122           
         C7        1.0000    0.95520   0.37740   0.55850   Biso      1.000     C          0.689859  
         C8        1.0000    0.04400   0.47500   0.05910   Biso      1.000     C          -0.03517  
         C9        1.0000    0.04170   0.79980   0.72770   Biso      1.000     C          0.6061270000000001  
         C10       1.0000    0.95600   0.52500   0.55910   Biso      1.000     C          -0.035175           
         C11       1.0000    0.99110   0.59190   0.64250   Biso      1.000     C          -0.098289           
         C12       1.0000    0.00420   0.72770   0.64060   Biso      1.000     C          -0.014431           
         C13       1.0000    0.98160   0.79240   0.55270   Biso      1.000     C          -0.103429           
         C14       1.0000    0.94630   0.72660   0.47410   Biso      1.000     C          -0.025613           
         C15       1.0000    0.93180   0.59270   0.47720   Biso      1.000     C          -0.095117           
         C16       1.0000    0.92280   0.79870   0.38330   Biso      1.000     C          0.662709  
         C17       1.0000    0.07720   0.20130   0.88330   Biso      1.000     C          0.662709  
         C18       1.0000    0.95830   0.20020   0.22770   Biso      1.000     C          0.6061270000000001  
         C19       1.0000    0.04480   0.62260   0.05850   Biso      1.000     C          0.689858  
         C20       1.0000    0.40730   0.93180   0.22720   Biso      1.000     C          -0.09511900000000001          
         C21       1.0000    0.27340   0.94630   0.22410   Biso      1.000     C          -0.025632           
         C22       1.0000    0.20760   0.98160   0.30270   Biso      1.000     C          -0.10340899999999999          
         C23       1.0000    0.27230   0.00420   0.39060   Biso      1.000     C          -0.014433000000000001         
         C24       1.0000    0.40810   0.99110   0.39250   Biso      1.000     C          -0.09829  
         C25       1.0000    0.47500   0.95600   0.30910   Biso      1.000     C          -0.03517  
         C26       1.0000    0.20130   0.92280   0.13330   Biso      1.000     C          0.66271   
         C27       1.0000    0.20020   0.04170   0.47770   Biso      1.000     C          0.606126  
         C28       1.0000    0.62260   0.95520   0.30850   Biso      1.000     C          0.689858  
         C29       1.0000    0.59270   0.06820   0.72720   Biso      1.000     C          -0.095114           
         C30       1.0000    0.72660   0.05370   0.72410   Biso      1.000     C          -0.025633           
         C31       1.0000    0.79240   0.01840   0.80270   Biso      1.000     C          -0.10340899999999999          
         C32       1.0000    0.72770   0.99580   0.89060   Biso      1.000     C          -0.014433000000000001         
         C33       1.0000    0.59190   0.00890   0.89250   Biso      1.000     C          -0.098289           
         C34       1.0000    0.79870   0.07720   0.63330   Biso      1.000     C          0.66271   
         C35       1.0000    0.37740   0.04480   0.80850   Biso      1.000     C          0.689859  
         C36       1.0000    0.79980   0.95830   0.97770   Biso      1.000     C          0.606126  
         Gd1       1.0000    0.13679   0.87104   0.91626   Biso      1.000     Gd          2.115377  
         Gd2       1.0000    0.87104   0.86321   0.16626   Biso      1.000     Gd          2.115377  
         Gd3       1.0000    0.86321   0.12896   0.41626   Biso      1.000     Gd          2.115377  
         Gd4       1.0000    0.12896   0.13679   0.66626   Biso      1.000     Gd          2.115377  
         H1        1.0000    0.99400   0.45440   0.19990   Biso      1.000     H          0.135735  
         H2        1.0000    0.00840   0.11620   0.04940   Biso      1.000     H          0.109117  
         H3        1.0000    0.00600   0.54560   0.69990   Biso      1.000     H          0.135735  
         H4        1.0000    0.99160   0.88380   0.54940   Biso      1.000     H          0.109117  
         H5        1.0000    0.09520   0.45240   0.92170   Biso      1.000     H          0.129681  
         H6        1.0000    0.54560   0.99400   0.94990   Biso      1.000     H          0.135735  
         H7        1.0000    0.88380   0.00840   0.79940   Biso      1.000     H          0.109116  
         H8        1.0000    0.54760   0.09520   0.67170   Biso      1.000     H          0.129681  
         H9        1.0000    0.45440   0.00600   0.44990   Biso      1.000     H          0.135735  
         H10       1.0000    0.11620   0.99160   0.29940   Biso      1.000     H          0.109116  
         H11       1.0000    0.90480   0.54760   0.42170   Biso      1.000     H          0.129681  
         H12       1.0000    0.45240   0.90480   0.17170   Biso      1.000     H          0.129681  
         O1        1.0000    0.73820   0.09290   0.55760   Biso      1.000     O          -0.632821           
         O2        1.0000    0.74800   0.99180   0.05900   Biso      1.000     O          -0.6408659999999999           
         O3        1.0000    0.90570   0.89520   0.97450   Biso      1.000     O          -0.709398           
         O4        1.0000    0.92110   0.07200   0.63510   Biso      1.000     O          -0.739874           
         O5        1.0000    0.07890   0.92800   0.13510   Biso      1.000     O          -0.739874           
         O6        1.0000    0.67400   0.02090   0.37380   Biso      1.000     O          -0.684825           
         O7        1.0000    0.25200   0.00820   0.55900   Biso      1.000     O          -0.6408659999999999           
         O8        1.0000    0.09430   0.10480   0.47450   Biso      1.000     O          -0.709398           
         O9        1.0000    0.32600   0.97910   0.87380   Biso      1.000     O          -0.684825           
         O10       1.0000    0.67500   0.89290   0.24410   Biso      1.000     O          -0.668767           
         O11       1.0000    0.32500   0.10710   0.74410   Biso      1.000     O          -0.668767           
         O12       1.0000    0.07200   0.07890   0.88510   Biso      1.000     O          -0.739874           
         O13       1.0000    0.92800   0.92110   0.38510   Biso      1.000     O          -0.739874           
         O14       1.0000    0.10480   0.90570   0.72450   Biso      1.000     O          -0.709398           
         O15       1.0000    0.00820   0.74800   0.80900   Biso      1.000     O          -0.6408659999999999           
         O16       1.0000    0.02090   0.32600   0.62380   Biso      1.000     O          -0.684825           
         O17       1.0000    0.89290   0.32500   0.49410   Biso      1.000     O          -0.668767           
         O18       1.0000    0.09290   0.26180   0.80760   Biso      1.000     O          -0.632821           
         O19       1.0000    0.89520   0.09430   0.22450   Biso      1.000     O          -0.709398           
         O20       1.0000    0.99180   0.25200   0.30900   Biso      1.000     O          -0.6408659999999999           
         O21       1.0000    0.97910   0.67400   0.12380   Biso      1.000     O          -0.684825           
         O22       1.0000    0.10710   0.67500   0.99410   Biso      1.000     O          -0.668767           
         O23       1.0000    0.90710   0.73820   0.30760   Biso      1.000     O          -0.632821           
         O24       1.0000    0.26180   0.90710   0.05760   Biso      1.000     O          -0.632821 