
##########################################################################
#               Crystallographic Information Format file
#               Produced by PyCifRW module
#
#  This is a CIF file.  CIF has been adopted by the International
#  Union of Crystallography as the standard for data archiving and
#  transmission.
#
#  For information on this file format, follow the CIF links at
#  http://www.iucr.org
##########################################################################

data_image0

_cell_length_a                          7.5798
_cell_length_b                          8.7849
_cell_length_c                          19.056
_cell_angle_alpha                       94.154
_cell_angle_beta                        96.89
_cell_angle_gamma                       112.58
_symmetry_space_group_name_H-M          'P 1'
_symmetry_int_tables_number             1
loop_
  _symmetry_equiv_pos_as_xyz
         'x, y, z' 
loop_
  _atom_site_label
  _atom_site_occupancy
  _atom_site_fract_x
  _atom_site_fract_y
  _atom_site_fract_z
  _atom_site_thermal_displace_type
  _atom_site_B_iso_or_equiv
  _atom_site_type_symbol
  _atom_site_charge
         C1        1.0000    0.76620   0.48180   0.32580   Biso      1.000     C          0.5686770000000001  
         C2        1.0000    0.94200   0.98180   0.19670   Biso      1.000     C          0.5787180000000001  
         C3        1.0000    0.35310   0.43370   0.29750   Biso      1.000     C          0.620488  
         C4        1.0000    0.46370   0.70000   0.24660   Biso      1.000     C          -0.184572           
         C5        1.0000    0.59790   0.82870   0.21840   Biso      1.000     C          0.007306999999999999          
         C6        1.0000    0.79080   0.84270   0.22490   Biso      1.000     C          -0.051235           
         C7        1.0000    0.84040   0.72670   0.25920   Biso      1.000     C          -0.136392           
         C8        1.0000    0.52140   0.93980   0.17960   Biso      1.000     C          0.576067  
         C9        1.0000    0.70730   0.59910   0.28660   Biso      1.000     C          -0.039356999999999996         
         C10       1.0000    0.22280   0.06760   0.36690   Biso      1.000     C          0.129693  
         C11       1.0000    0.96050   0.98070   0.40840   Biso      1.000     C          0.12082000000000001           
         C12       1.0000    0.34980   0.85980   0.41110   Biso      1.000     C          -0.1081   
         C13       1.0000    0.44870   0.90620   0.48840   Biso      1.000     C          -0.20931  
         C14       1.0000    0.04670   0.57960   0.02590   Biso      1.000     C          -0.208657           
         C15       1.0000    0.02110   0.55600   0.10250   Biso      1.000     C          -0.109233           
         C16       1.0000    0.51530   0.58460   0.27910   Biso      1.000     C          -0.007439           
         C17       1.0000    0.95330   0.42040   0.97410   Biso      1.000     C          -0.208536           
         C18       1.0000    0.97890   0.44400   0.89750   Biso      1.000     C          -0.10908599999999999          
         C19       1.0000    0.47120   0.54860   0.89960   Biso      1.000     C          0.129159  
         C20       1.0000    0.47860   0.06020   0.82040   Biso      1.000     C          0.576395  
         C21       1.0000    0.05800   0.01820   0.80330   Biso      1.000     C          0.578626  
         C22       1.0000    0.23380   0.51820   0.67420   Biso      1.000     C          0.5687770000000001  
         C23       1.0000    0.64690   0.56630   0.70250   Biso      1.000     C          0.620536  
         C24       1.0000    0.53630   0.30000   0.75340   Biso      1.000     C          -0.18488  
         C25       1.0000    0.40210   0.17130   0.78160   Biso      1.000     C          0.007095999999999999          
         C26       1.0000    0.20920   0.15730   0.77510   Biso      1.000     C          -0.051413           
         C27       1.0000    0.15960   0.27330   0.74080   Biso      1.000     C          -0.13660799999999998          
         C28       1.0000    0.29270   0.40090   0.71340   Biso      1.000     C          -0.039603           
         C29       1.0000    0.48470   0.41540   0.72090   Biso      1.000     C          -0.007615           
         C30       1.0000    0.77720   0.93240   0.63310   Biso      1.000     C          0.129829  
         C31       1.0000    0.03950   0.01930   0.59160   Biso      1.000     C          0.120681  
         C32       1.0000    0.65020   0.14020   0.58890   Biso      1.000     C          -0.10796900000000001          
         C33       1.0000    0.55130   0.09380   0.51160   Biso      1.000     C          -0.209279           
         C34       1.0000    0.27860   0.65640   0.86170   Biso      1.000     C          0.128566  
         C35       1.0000    0.52880   0.45140   0.10040   Biso      1.000     C          0.129371  
         C36       1.0000    0.72140   0.34360   0.13830   Biso      1.000     C          0.128551  
         Cu1       1.0000    0.32000   0.14529   0.16641   Biso      1.000     Cu          0.8674729999999999  
         Cu2       1.0000    0.68000   0.85471   0.83359   Biso      1.000     Cu          0.865743  
         Cu3       1.0000    0.00510   0.29536   0.34890   Biso      1.000     Cu          0.760624  
         Cu4       1.0000    0.99490   0.70464   0.65110   Biso      1.000     Cu          0.759093  
         H1        1.0000    0.66450   0.30840   0.75650   Biso      1.000     H          0.131296  
         H2        1.0000    0.99160   0.65850   0.01080   Biso      1.000     H          0.109633  
         H3        1.0000    0.18550   0.62900   0.02360   Biso      1.000     H          0.120331  
         H4        1.0000    0.08260   0.66410   0.13240   Biso      1.000     H          0.121597  
         H5        1.0000    0.08580   0.48490   0.11950   Biso      1.000     H          0.11270799999999999           
         H6        1.0000    0.41340   0.46740   0.08930   Biso      1.000     H          0.104201  
         H7        1.0000    0.77650   0.27420   0.15820   Biso      1.000     H          0.133461  
         H8        1.0000    0.35160   0.85870   0.51910   Biso      1.000     H          0.106048  
         H9        1.0000    0.54370   0.85600   0.49560   Biso      1.000     H          0.120307  
         H10       1.0000    0.28460   0.73860   0.40040   Biso      1.000     H          0.132753  
         H11       1.0000    0.44710   0.89880   0.37980   Biso      1.000     H          0.11453800000000001           
         H12       1.0000    0.83980   0.97180   0.41970   Biso      1.000     H          0.10643499999999999           
         H13       1.0000    0.32650   0.12890   0.34420   Biso      1.000     H          0.137775  
         H14       1.0000    0.03090   0.26410   0.73620   Biso      1.000     H          0.121868  
         H15       1.0000    0.33550   0.69160   0.24350   Biso      1.000     H          0.131391  
         H16       1.0000    0.67350   0.87110   0.65580   Biso      1.000     H          0.13790999999999998           
         H17       1.0000    0.16020   0.02820   0.58030   Biso      1.000     H          0.106331  
         H18       1.0000    0.55290   0.10120   0.62020   Biso      1.000     H          0.114756  
         H19       1.0000    0.71540   0.26140   0.59960   Biso      1.000     H          0.132891  
         H20       1.0000    0.64840   0.14130   0.48090   Biso      1.000     H          0.105718  
         H21       1.0000    0.22350   0.72580   0.84180   Biso      1.000     H          0.133543  
         H22       1.0000    0.45630   0.14400   0.50440   Biso      1.000     H          0.120178  
         H23       1.0000    0.91420   0.51510   0.88050   Biso      1.000     H          0.112826  
         H24       1.0000    0.91740   0.33590   0.86760   Biso      1.000     H          0.12184400000000001           
         H25       1.0000    0.81450   0.37100   0.97640   Biso      1.000     H          0.12026500000000001           
         H26       1.0000    0.00840   0.34150   0.98920   Biso      1.000     H          0.10946099999999999           
         H27       1.0000    0.58660   0.53260   0.91070   Biso      1.000     H          0.10404400000000001           
         H28       1.0000    0.96910   0.73590   0.26380   Biso      1.000     H          0.121972  
         N1        1.0000    0.30720   0.44920   0.91490   Biso      1.000     N          -0.237502           
         N2        1.0000    0.93210   0.89820   0.62710   Biso      1.000     N          -0.343532           
         N3        1.0000    0.96030   0.12360   0.57410   Biso      1.000     N          -0.254257           
         N4        1.0000    0.79210   0.06580   0.60230   Biso      1.000     N          0.187462  
         N5        1.0000    0.46230   0.67890   0.86610   Biso      1.000     N          -0.35233000000000003          
         N6        1.0000    0.18360   0.51970   0.89010   Biso      1.000     N          0.18161300000000002           
         N7        1.0000    0.03970   0.87640   0.42590   Biso      1.000     N          -0.253496           
         N8        1.0000    0.20790   0.93420   0.39770   Biso      1.000     N          0.187487  
         N9        1.0000    0.53770   0.32110   0.13390   Biso      1.000     N          -0.352479           
         N10       1.0000    0.69280   0.55080   0.08510   Biso      1.000     N          -0.236657           
         N11       1.0000    0.81640   0.48030   0.10990   Biso      1.000     N          0.181727  
         N12       1.0000    0.06790   0.10180   0.37290   Biso      1.000     N          -0.34383600000000003          
         O1        1.0000    0.09840   0.90120   0.81930   Biso      1.000     O          -0.5617770000000001           
         O2        1.0000    0.90000   0.03420   0.80869   Biso      1.000     O          -0.547425           
         O3        1.0000    0.33640   0.59220   0.63010   Biso      1.000     O          -0.56074  
         O4        1.0000    0.08330   0.53780   0.68822   Biso      1.000     O          -0.531842           
         O5        1.0000    0.73330   0.54300   0.65326   Biso      1.000     O          -0.47296800000000006          
         O6        1.0000    0.69580   0.69890   0.74110   Biso      1.000     O          -0.5771109999999999           
         O7        1.0000    0.47200   0.91160   0.11434   Biso      1.000     O          -0.517572           
         O8        1.0000    0.10000   0.96580   0.19131   Biso      1.000     O          -0.5469470000000001           
         O9        1.0000    0.90160   0.09880   0.18070   Biso      1.000     O          -0.561131           
         O10       1.0000    0.66360   0.40780   0.36990   Biso      1.000     O          -0.559399           
         O11       1.0000    0.91670   0.46220   0.31178   Biso      1.000     O          -0.5316770000000001           
         O12       1.0000    0.26670   0.45700   0.34674   Biso      1.000     O          -0.472051           
         O13       1.0000    0.30420   0.30110   0.25890   Biso      1.000     O          -0.577177           
         O14       1.0000    0.50600   0.94850   0.78044   Biso      1.000     O          -0.5184979999999999           
         O15       1.0000    0.49400   0.05150   0.21956   Biso      1.000     O          -0.517961           
         O16       1.0000    0.52800   0.08840   0.88566   Biso      1.000     O          -0.519019 