
##########################################################################
#               Crystallographic Information Format file
#               Produced by PyCifRW module
#
#  This is a CIF file.  CIF has been adopted by the International
#  Union of Crystallography as the standard for data archiving and
#  transmission.
#
#  For information on this file format, follow the CIF links at
#  http://www.iucr.org
##########################################################################

data_image0

_cell_length_a                          10.8546
_cell_length_b                          23.6261
_cell_length_c                          9.6799
_cell_angle_alpha                       90
_cell_angle_beta                        104.14
_cell_angle_gamma                       90
_symmetry_space_group_name_H-M          'P 1'
_symmetry_int_tables_number             1
loop_
  _symmetry_equiv_pos_as_xyz
         'x, y, z' 
loop_
  _atom_site_label
  _atom_site_occupancy
  _atom_site_fract_x
  _atom_site_fract_y
  _atom_site_fract_z
  _atom_site_thermal_displace_type
  _atom_site_B_iso_or_equiv
  _atom_site_type_symbol
  _atom_site_charge
         C1        1.0000    0.09155   0.46289   0.47468   Biso      1.000     C          -0.113928           
         C2        1.0000    0.17524   0.57157   0.07480   Biso      1.000     C          -0.092922           
         C3        1.0000    0.33832   0.64680   0.18010   Biso      1.000     C          -0.14363800000000002          
         C4        1.0000    0.70355   0.73632   0.93340   Biso      1.000     C          -0.051387           
         C5        1.0000    0.45576   0.65923   0.16380   Biso      1.000     C          -0.052849           
         C6        1.0000    0.39015   0.58712   0.03087   Biso      1.000     C          0.10998599999999999           
         C7        1.0000    0.85325   0.71661   0.11717   Biso      1.000     C          0.064025  
         C8        1.0000    0.16382   0.43970   0.73581   Biso      1.000     C          0.553895  
         C9        1.0000    0.07842   0.47078   0.61325   Biso      1.000     C          -0.022121000000000002         
         C10       1.0000    0.57091   0.54940   0.50524   Biso      1.000     C          -0.119707           
         C11       1.0000    0.98632   0.50798   0.63789   Biso      1.000     C          -0.12313199999999999          
         C12       1.0000    0.47918   0.47671   0.62446   Biso      1.000     C          -0.11426099999999999          
         C13       1.0000    0.55072   0.52613   0.63086   Biso      1.000     C          -0.025305           
         C14       1.0000    0.60306   0.55461   0.77173   Biso      1.000     C          0.559208  
         C15       1.0000    0.90845   0.53711   0.52532   Biso      1.000     C          -0.113923           
         C16       1.0000    0.39694   0.44539   0.22827   Biso      1.000     C          0.559208  
         C17       1.0000    0.01368   0.49202   0.36211   Biso      1.000     C          -0.12313099999999999          
         C18       1.0000    0.92158   0.52922   0.38675   Biso      1.000     C          -0.022119999999999997         
         C19       1.0000    0.83618   0.56030   0.26419   Biso      1.000     C          0.553897  
         C20       1.0000    0.44928   0.47387   0.36914   Biso      1.000     C          -0.025309           
         C21       1.0000    0.77624   0.78339   0.96340   Biso      1.000     C          -0.11968499999999999          
         C22       1.0000    0.06539   0.61011   0.00580   Biso      1.000     C          -0.195404           
         C23       1.0000    0.97788   0.80657   0.15130   Biso      1.000     C          -0.092147           
         C24       1.0000    0.07685   0.63472   0.86413   Biso      1.000     C          -0.176478           
         C25       1.0000    0.45576   0.84077   0.66380   Biso      1.000     C          -0.052861           
         C26       1.0000    0.57091   0.95060   0.00524   Biso      1.000     C          -0.119707           
         C27       1.0000    0.47918   0.02329   0.12446   Biso      1.000     C          -0.11426099999999999          
         C28       1.0000    0.55072   0.97387   0.13086   Biso      1.000     C          -0.025305           
         C29       1.0000    0.60306   0.94539   0.27173   Biso      1.000     C          0.559208  
         C30       1.0000    0.33832   0.85320   0.68010   Biso      1.000     C          -0.143626           
         C31       1.0000    0.17524   0.92843   0.57480   Biso      1.000     C          -0.092923           
         C32       1.0000    0.90845   0.96289   0.02532   Biso      1.000     C          -0.113927           
         C33       1.0000    0.01368   0.00798   0.86211   Biso      1.000     C          -0.123136           
         C34       1.0000    0.52082   0.52329   0.37554   Biso      1.000     C          -0.11425899999999999          
         C35       1.0000    0.92158   0.97078   0.88675   Biso      1.000     C          -0.022119           
         C36       1.0000    0.06539   0.88989   0.50580   Biso      1.000     C          -0.195404           
         C37       1.0000    0.14675   0.21661   0.38283   Biso      1.000     C          0.064025  
         C38       1.0000    0.85325   0.78339   0.61717   Biso      1.000     C          0.064025  
         C39       1.0000    0.70355   0.76368   0.43340   Biso      1.000     C          -0.051387999999999996         
         C40       1.0000    0.77624   0.71661   0.46340   Biso      1.000     C          -0.11968499999999999          
         C41       1.0000    0.07685   0.86528   0.36413   Biso      1.000     C          -0.176478           
         C42       1.0000    0.97788   0.69343   0.65130   Biso      1.000     C          -0.092147           
         C43       1.0000    0.95989   0.83106   0.28970   Biso      1.000     C          -0.199028           
         C44       1.0000    0.95989   0.66894   0.78970   Biso      1.000     C          -0.199028           
         C45       1.0000    0.83618   0.93970   0.76419   Biso      1.000     C          0.553897  
         C46       1.0000    0.14675   0.28339   0.88283   Biso      1.000     C          0.064025  
         C47       1.0000    0.39015   0.91288   0.53087   Biso      1.000     C          0.10998599999999999           
         C48       1.0000    0.92315   0.36528   0.13587   Biso      1.000     C          -0.176477           
         C49       1.0000    0.42909   0.45060   0.49476   Biso      1.000     C          -0.119703           
         C50       1.0000    0.60985   0.08712   0.46913   Biso      1.000     C          0.10998599999999999           
         C51       1.0000    0.82476   0.07157   0.42520   Biso      1.000     C          -0.092923           
         C52       1.0000    0.93461   0.38989   0.99420   Biso      1.000     C          -0.195404           
         C53       1.0000    0.04011   0.33106   0.21030   Biso      1.000     C          -0.199028           
         C54       1.0000    0.42909   0.04940   0.99476   Biso      1.000     C          -0.11970599999999999          
         C55       1.0000    0.93461   0.11011   0.49420   Biso      1.000     C          -0.195404           
         C56       1.0000    0.02212   0.30657   0.34870   Biso      1.000     C          -0.092146           
         C57       1.0000    0.52082   0.97671   0.87554   Biso      1.000     C          -0.11425999999999999          
         C58       1.0000    0.82476   0.42843   0.92520   Biso      1.000     C          -0.092923           
         C59       1.0000    0.92315   0.13472   0.63587   Biso      1.000     C          -0.176477           
         C60       1.0000    0.44928   0.02613   0.86914   Biso      1.000     C          -0.025305           
         C61       1.0000    0.66168   0.14680   0.31990   Biso      1.000     C          -0.14363800000000002          
         C62       1.0000    0.66168   0.35320   0.81990   Biso      1.000     C          -0.14363800000000002          
         C63       1.0000    0.39694   0.05461   0.72827   Biso      1.000     C          0.559208  
         C64       1.0000    0.22376   0.28339   0.53660   Biso      1.000     C          -0.119697           
         C65       1.0000    0.09155   0.03711   0.97468   Biso      1.000     C          -0.11392200000000001          
         C66       1.0000    0.98632   0.99202   0.13789   Biso      1.000     C          -0.12313099999999999          
         C67       1.0000    0.54424   0.34077   0.83620   Biso      1.000     C          -0.052849           
         C68       1.0000    0.02212   0.19343   0.84870   Biso      1.000     C          -0.092147           
         C69       1.0000    0.07842   0.02922   0.11325   Biso      1.000     C          -0.022119999999999997         
         C70       1.0000    0.60985   0.41288   0.96913   Biso      1.000     C          0.10998599999999999           
         C71       1.0000    0.22376   0.21661   0.03660   Biso      1.000     C          -0.119697           
         C72       1.0000    0.16382   0.06030   0.23581   Biso      1.000     C          0.553897  
         C73       1.0000    0.29645   0.26368   0.06660   Biso      1.000     C          -0.051375           
         C74       1.0000    0.29645   0.23632   0.56660   Biso      1.000     C          -0.051374           
         C75       1.0000    0.04011   0.16894   0.71030   Biso      1.000     C          -0.199028           
         C76       1.0000    0.54424   0.15923   0.33620   Biso      1.000     C          -0.05285  
         Cd1       1.0000    0.68066   0.89446   0.52762   Biso      1.000     Cd          0.83221   
         Cd2       1.0000    0.31934   0.10554   0.47238   Biso      1.000     Cd          0.83221   
         Cd3       1.0000    0.31934   0.39446   0.97238   Biso      1.000     Cd          0.83221   
         Cd4       1.0000    0.68066   0.60554   0.02762   Biso      1.000     Cd          0.83221   
         H1        1.0000    0.17450   0.96220   0.51400   Biso      1.000     H          0.122945  
         H2        1.0000    0.49210   0.31080   0.78950   Biso      1.000     H          0.113391  
         H3        1.0000    0.94240   0.28440   0.32890   Biso      1.000     H          0.097988  
         H4        1.0000    0.01350   0.33790   0.41350   Biso      1.000     H          0.112455  
         H5        1.0000    0.16430   0.94140   0.66830   Biso      1.000     H          0.107846  
         H6        1.0000    0.97690   0.51340   0.73200   Biso      1.000     H          0.117875  
         H7        1.0000    0.38590   0.94340   0.46600   Biso      1.000     H          0.11640199999999999           
         H8        1.0000    0.01490   0.41160   0.00960   Biso      1.000     H          0.118309  
         H9        1.0000    0.23650   0.31840   0.58610   Biso      1.000     H          0.141438  
         H10       1.0000    0.15400   0.43750   0.45740   Biso      1.000     H          0.116499  
         H11       1.0000    0.61410   0.44340   0.03400   Biso      1.000     H          0.11640199999999999           
         H12       1.0000    0.38090   0.41680   0.49110   Biso      1.000     H          0.110695  
         H13       1.0000    0.50790   0.81080   0.71050   Biso      1.000     H          0.113392  
         H14       1.0000    0.36970   0.23270   0.64330   Biso      1.000     H          0.11894400000000001           
         H15       1.0000    0.70680   0.33390   0.76160   Biso      1.000     H          0.127342  
         H16       1.0000    0.29320   0.83390   0.73840   Biso      1.000     H          0.127341  
         H17       1.0000    0.83570   0.44140   0.83170   Biso      1.000     H          0.107846  
         H18       1.0000    0.90630   0.69720   0.19550   Biso      1.000     H          0.102506  
         H19       1.0000    0.05760   0.78440   0.17110   Biso      1.000     H          0.097988  
         H20       1.0000    0.76350   0.81840   0.91390   Biso      1.000     H          0.14143699999999998           
         H21       1.0000    0.93920   0.35840   0.92800   Biso      1.000     H          0.083759  
         H22       1.0000    0.94590   0.80000   0.35290   Biso      1.000     H          0.09449   
         H23       1.0000    0.88400   0.85580   0.26990   Biso      1.000     H          0.122228  
         H24       1.0000    0.91060   0.39650   0.19920   Biso      1.000     H          0.09954500000000001           
         H25       1.0000    0.84730   0.34060   0.11930   Biso      1.000     H          0.08708099999999999           
         H26       1.0000    0.15270   0.84060   0.38070   Biso      1.000     H          0.08708099999999999           
         H27       1.0000    0.63030   0.73270   0.85670   Biso      1.000     H          0.11894500000000001           
         H28       1.0000    0.08940   0.89650   0.30080   Biso      1.000     H          0.09954500000000001           
         H29       1.0000    0.11600   0.35580   0.23010   Biso      1.000     H          0.122227  
         H30       1.0000    0.05410   0.30000   0.14710   Biso      1.000     H          0.09449   
         H31       1.0000    0.98510   0.91160   0.49040   Biso      1.000     H          0.118309  
         H32       1.0000    0.82550   0.46220   0.98600   Biso      1.000     H          0.122945  
         H33       1.0000    0.06080   0.85840   0.57200   Biso      1.000     H          0.083759  
         H34       1.0000    0.98650   0.83790   0.08650   Biso      1.000     H          0.112456  
         H35       1.0000    0.53520   0.53910   0.29060   Biso      1.000     H          0.11141199999999998           
         H36       1.0000    0.90630   0.80280   0.69550   Biso      1.000     H          0.102506  
         H37       1.0000    0.09370   0.19720   0.30450   Biso      1.000     H          0.102506  
         H38       1.0000    0.38590   0.55660   0.96600   Biso      1.000     H          0.11640299999999999           
         H39       1.0000    0.61410   0.05660   0.53400   Biso      1.000     H          0.11640299999999999           
         H40       1.0000    0.49210   0.18920   0.28950   Biso      1.000     H          0.113391  
         H41       1.0000    0.70680   0.16610   0.26160   Biso      1.000     H          0.127341  
         H42       1.0000    0.83570   0.05860   0.33170   Biso      1.000     H          0.107846  
         H43       1.0000    0.61910   0.58320   0.50890   Biso      1.000     H          0.110695  
         H44       1.0000    0.46480   0.46090   0.70940   Biso      1.000     H          0.11141199999999998           
         H45       1.0000    0.82550   0.03780   0.48600   Biso      1.000     H          0.122945  
         H46       1.0000    0.93920   0.14160   0.42800   Biso      1.000     H          0.083759  
         H47       1.0000    0.84600   0.56250   0.54260   Biso      1.000     H          0.116499  
         H48       1.0000    0.01490   0.08840   0.50960   Biso      1.000     H          0.118309  
         H49       1.0000    0.91060   0.10350   0.69920   Biso      1.000     H          0.09954500000000001           
         H50       1.0000    0.02310   0.48660   0.26800   Biso      1.000     H          0.117875  
         H51       1.0000    0.84730   0.15940   0.61930   Biso      1.000     H          0.087082  
         H52       1.0000    0.11600   0.14420   0.73010   Biso      1.000     H          0.122227  
         H53       1.0000    0.09370   0.30280   0.80450   Biso      1.000     H          0.102506  
         H54       1.0000    0.36970   0.26730   0.14330   Biso      1.000     H          0.11894400000000001           
         H55       1.0000    0.23650   0.18160   0.08610   Biso      1.000     H          0.141438  
         H56       1.0000    0.05410   0.20000   0.64710   Biso      1.000     H          0.09449   
         H57       1.0000    0.50790   0.68920   0.21050   Biso      1.000     H          0.113391  
         H58       1.0000    0.94240   0.21560   0.82890   Biso      1.000     H          0.097987  
         H59       1.0000    0.29320   0.66610   0.23840   Biso      1.000     H          0.127341  
         H60       1.0000    0.17450   0.53780   0.01400   Biso      1.000     H          0.12294400000000001           
         H61       1.0000    0.97690   0.98660   0.23200   Biso      1.000     H          0.117875  
         H62       1.0000    0.15400   0.06250   0.95740   Biso      1.000     H          0.116499  
         H63       1.0000    0.61910   0.91680   0.00890   Biso      1.000     H          0.110695  
         H64       1.0000    0.46480   0.03910   0.20940   Biso      1.000     H          0.11141199999999998           
         H65       1.0000    0.53520   0.96090   0.79060   Biso      1.000     H          0.11141199999999998           
         H66       1.0000    0.38090   0.08320   0.99110   Biso      1.000     H          0.110695  
         H67       1.0000    0.84600   0.93750   0.04260   Biso      1.000     H          0.116499  
         H68       1.0000    0.02310   0.01340   0.76800   Biso      1.000     H          0.117875  
         H69       1.0000    0.16430   0.55860   0.16830   Biso      1.000     H          0.107846  
         H70       1.0000    0.76350   0.68160   0.41390   Biso      1.000     H          0.14143699999999998           
         H71       1.0000    0.63030   0.76730   0.35670   Biso      1.000     H          0.11894500000000001           
         H72       1.0000    0.05760   0.71560   0.67110   Biso      1.000     H          0.097988  
         H73       1.0000    0.94590   0.70000   0.85290   Biso      1.000     H          0.09449   
         H74       1.0000    0.88400   0.64420   0.76990   Biso      1.000     H          0.122227  
         H75       1.0000    0.15270   0.65940   0.88070   Biso      1.000     H          0.08708099999999999           
         H76       1.0000    0.08940   0.60350   0.80080   Biso      1.000     H          0.09954500000000001           
         H77       1.0000    0.98510   0.58840   0.99040   Biso      1.000     H          0.118308  
         H78       1.0000    0.06080   0.64160   0.07200   Biso      1.000     H          0.083759  
         H79       1.0000    0.98650   0.66210   0.58650   Biso      1.000     H          0.11245699999999999           
         H80       1.0000    0.01350   0.16210   0.91350   Biso      1.000     H          0.11245699999999999           
         N1        1.0000    0.70227   0.10050   0.40508   Biso      1.000     N          0.066268  
         N2        1.0000    0.51175   0.12191   0.43047   Biso      1.000     N          -0.295604           
         N3        1.0000    0.24848   0.30551   0.96919   Biso      1.000     N          -0.272897           
         N4        1.0000    0.12782   0.22991   0.91998   Biso      1.000     N          0.064175  
         N5        1.0000    0.75152   0.69449   0.03081   Biso      1.000     N          -0.272896           
         N6        1.0000    0.12782   0.27009   0.41998   Biso      1.000     N          0.064175  
         N7        1.0000    0.29773   0.89950   0.59492   Biso      1.000     N          0.06626699999999999           
         N8        1.0000    0.48825   0.87809   0.56953   Biso      1.000     N          -0.295603           
         N9        1.0000    0.75152   0.80551   0.53081   Biso      1.000     N          -0.272896           
         N10       1.0000    0.24848   0.19449   0.46919   Biso      1.000     N          -0.272897           
         N11       1.0000    0.29773   0.60050   0.09492   Biso      1.000     N          0.066268  
         N12       1.0000    0.48825   0.62191   0.06953   Biso      1.000     N          -0.295604           
         N13       1.0000    0.87218   0.72991   0.58002   Biso      1.000     N          0.064174  
         N14       1.0000    0.87218   0.77009   0.08002   Biso      1.000     N          0.064174  
         N15       1.0000    0.70227   0.39950   0.90508   Biso      1.000     N          0.066268  
         N16       1.0000    0.51175   0.37809   0.93047   Biso      1.000     N          -0.295604           
         O1        1.0000    0.66994   0.59829   0.77766   Biso      1.000     O          -0.583174           
         O2        1.0000    0.16405   0.04458   0.36101   Biso      1.000     O          -0.5617840000000001           
         O3        1.0000    0.23175   0.09961   0.21045   Biso      1.000     O          -0.5623670000000001           
         O4        1.0000    0.42350   0.03360   0.61964   Biso      1.000     O          -0.555106           
         O5        1.0000    0.33006   0.09829   0.72234   Biso      1.000     O          -0.583174           
         O6        1.0000    0.66994   0.90171   0.27766   Biso      1.000     O          -0.583174           
         O7        1.0000    0.57650   0.96640   0.38036   Biso      1.000     O          -0.555106           
         O8        1.0000    0.76825   0.90039   0.78955   Biso      1.000     O          -0.5623670000000001           
         O9        1.0000    0.83595   0.95542   0.63899   Biso      1.000     O          -0.5617840000000001           
         O10       1.0000    0.83595   0.54458   0.13899   Biso      1.000     O          -0.5617840000000001           
         O11       1.0000    0.76825   0.59961   0.28955   Biso      1.000     O          -0.5623670000000001           
         O12       1.0000    0.33006   0.40171   0.22234   Biso      1.000     O          -0.583174           
         O13       1.0000    0.16405   0.45542   0.86101   Biso      1.000     O          -0.5617840000000001           
         O14       1.0000    0.23175   0.40039   0.71045   Biso      1.000     O          -0.562366           
         O15       1.0000    0.57650   0.53360   0.88036   Biso      1.000     O          -0.555106           
         O16       1.0000    0.42350   0.46640   0.11964   Biso      1.000     O          -0.555106 