
##########################################################################
#               Crystallographic Information Format file
#               Produced by PyCifRW module
#
#  This is a CIF file.  CIF has been adopted by the International
#  Union of Crystallography as the standard for data archiving and
#  transmission.
#
#  For information on this file format, follow the CIF links at
#  http://www.iucr.org
##########################################################################

data_image0

_cell_length_a                          8.8979
_cell_length_b                          21.4587
_cell_length_c                          13.4851
_cell_angle_alpha                       90
_cell_angle_beta                        96.7804
_cell_angle_gamma                       90
_symmetry_space_group_name_H-M          'P 1'
_symmetry_int_tables_number             1
loop_
  _symmetry_equiv_pos_as_xyz
         'x, y, z' 
loop_
  _atom_site_label
  _atom_site_occupancy
  _atom_site_fract_x
  _atom_site_fract_y
  _atom_site_fract_z
  _atom_site_thermal_displace_type
  _atom_site_B_iso_or_equiv
  _atom_site_type_symbol
  _atom_site_charge
         C1        1.0000    0.73900   0.22009   0.50330   Biso      1.000     C          -0.205911           
         C2        1.0000    0.84020   0.47146   0.07260   Biso      1.000     C          0.178865  
         C3        1.0000    0.60230   0.54151   0.63480   Biso      1.000     C          0.080688  
         C4        1.0000    0.10230   0.95849   0.13480   Biso      1.000     C          0.080688  
         C5        1.0000    0.69590   0.50750   0.58070   Biso      1.000     C          -0.184687           
         C6        1.0000    0.84020   0.52854   0.57260   Biso      1.000     C          0.178869  
         C7        1.0000    0.88570   0.58322   0.62190   Biso      1.000     C          -0.187156           
         C8        1.0000    0.73900   0.77991   0.00330   Biso      1.000     C          -0.205911           
         C9        1.0000    0.78720   0.61410   0.67670   Biso      1.000     C          0.092051  
         C10       1.0000    0.81290   0.82095   0.08320   Biso      1.000     C          0.6234069999999999  
         C11       1.0000    0.93280   0.49230   0.50920   Biso      1.000     C          -0.127391           
         C12       1.0000    0.11430   0.41678   0.37810   Biso      1.000     C          -0.187158           
         C13       1.0000    0.61430   0.91678   0.37810   Biso      1.000     C          -0.187157           
         C14       1.0000    0.65980   0.97146   0.42740   Biso      1.000     C          0.178862  
         C15       1.0000    0.21280   0.38590   0.32330   Biso      1.000     C          0.092051  
         C16       1.0000    0.81290   0.17905   0.58320   Biso      1.000     C          0.623408  
         C17       1.0000    0.30410   0.49250   0.41930   Biso      1.000     C          -0.18468900000000002          
         C18       1.0000    0.89770   0.95849   0.36520   Biso      1.000     C          0.080688  
         C19       1.0000    0.60230   0.45849   0.13480   Biso      1.000     C          0.080687  
         C20       1.0000    0.88570   0.41678   0.12190   Biso      1.000     C          -0.187155           
         C21       1.0000    0.23900   0.27991   0.00330   Biso      1.000     C          -0.205911           
         C22       1.0000    0.31290   0.32095   0.08320   Biso      1.000     C          0.623408  
         C23       1.0000    0.80410   0.99250   0.41930   Biso      1.000     C          -0.184684           
         C24       1.0000    0.78720   0.38590   0.17670   Biso      1.000     C          0.092051  
         C25       1.0000    0.31290   0.67905   0.58320   Biso      1.000     C          0.623409  
         C26       1.0000    0.43280   0.99230   0.50920   Biso      1.000     C          -0.127392           
         C27       1.0000    0.28720   0.11410   0.67670   Biso      1.000     C          0.09205   
         C28       1.0000    0.38570   0.08322   0.62190   Biso      1.000     C          -0.187157           
         C29       1.0000    0.34020   0.02854   0.57260   Biso      1.000     C          0.178868  
         C30       1.0000    0.18710   0.82095   0.41680   Biso      1.000     C          0.623404  
         C31       1.0000    0.19590   0.00750   0.58070   Biso      1.000     C          -0.184684           
         C32       1.0000    0.10230   0.04151   0.63480   Biso      1.000     C          0.080688  
         C33       1.0000    0.93280   0.50770   0.00920   Biso      1.000     C          -0.127391           
         C34       1.0000    0.19590   0.99250   0.08070   Biso      1.000     C          -0.184687           
         C35       1.0000    0.23900   0.72009   0.50330   Biso      1.000     C          -0.20591199999999998          
         C36       1.0000    0.69590   0.49250   0.08070   Biso      1.000     C          -0.18468299999999999          
         C37       1.0000    0.68710   0.32095   0.41680   Biso      1.000     C          0.623404  
         C38       1.0000    0.39770   0.54151   0.86520   Biso      1.000     C          0.080688  
         C39       1.0000    0.15980   0.52854   0.92740   Biso      1.000     C          0.17886   
         C40       1.0000    0.11430   0.58322   0.87810   Biso      1.000     C          -0.187155           
         C41       1.0000    0.15980   0.47146   0.42740   Biso      1.000     C          0.178866  
         C42       1.0000    0.21280   0.61410   0.82330   Biso      1.000     C          0.092051  
         C43       1.0000    0.26100   0.77991   0.49670   Biso      1.000     C          -0.205869           
         C44       1.0000    0.06720   0.49230   0.99080   Biso      1.000     C          -0.12733699999999998          
         C45       1.0000    0.71280   0.88590   0.32330   Biso      1.000     C          0.092051  
         C46       1.0000    0.56720   0.00770   0.49080   Biso      1.000     C          -0.12733699999999998          
         C47       1.0000    0.06720   0.50770   0.49080   Biso      1.000     C          -0.127338           
         C48       1.0000    0.18710   0.17905   0.91680   Biso      1.000     C          0.623404  
         C49       1.0000    0.30410   0.50750   0.91930   Biso      1.000     C          -0.184684           
         C50       1.0000    0.26100   0.22009   0.99670   Biso      1.000     C          -0.20586999999999997          
         C51       1.0000    0.89770   0.04151   0.86520   Biso      1.000     C          0.080687  
         C52       1.0000    0.34020   0.97146   0.07260   Biso      1.000     C          0.17886300000000002           
         C53       1.0000    0.56720   0.99230   0.99080   Biso      1.000     C          -0.127392           
         C54       1.0000    0.38570   0.91678   0.12190   Biso      1.000     C          -0.187155           
         C55       1.0000    0.71280   0.11410   0.82330   Biso      1.000     C          0.09205   
         C56       1.0000    0.39770   0.45849   0.36520   Biso      1.000     C          0.080689  
         C57       1.0000    0.43280   0.00770   0.00920   Biso      1.000     C          -0.12733699999999998          
         C58       1.0000    0.76100   0.27991   0.49670   Biso      1.000     C          -0.20586999999999997          
         C59       1.0000    0.68710   0.67905   0.91680   Biso      1.000     C          0.623404  
         C60       1.0000    0.65980   0.02854   0.92740   Biso      1.000     C          0.178866  
         C61       1.0000    0.28720   0.88590   0.17670   Biso      1.000     C          0.092051  
         C62       1.0000    0.80410   0.00750   0.91930   Biso      1.000     C          -0.18468299999999999          
         C63       1.0000    0.76100   0.72009   0.99670   Biso      1.000     C          -0.20586999999999997          
         C64       1.0000    0.61430   0.08322   0.87810   Biso      1.000     C          -0.187154           
         H1        1.0000    0.49520   0.47300   0.36100   Biso      1.000     H          0.096187  
         H2        1.0000    0.98220   0.40100   0.11810   Biso      1.000     H          0.134265  
         H3        1.0000    0.82840   0.29840   0.54600   Biso      1.000     H          0.142511  
         H4        1.0000    0.16170   0.02940   0.04970   Biso      1.000     H          0.13906300000000002           
         H5        1.0000    0.89160   0.54420   0.98060   Biso      1.000     H          0.12548499999999999           
         H6        1.0000    0.99520   0.97300   0.36100   Biso      1.000     H          0.096187  
         H7        1.0000    0.39160   0.04420   0.98060   Biso      1.000     H          0.12548199999999998           
         H8        1.0000    0.32080   0.85010   0.21140   Biso      1.000     H          0.10091   
         H9        1.0000    0.67160   0.79840   0.95400   Biso      1.000     H          0.142514  
         H10       1.0000    0.48220   0.90100   0.11810   Biso      1.000     H          0.134265  
         H11       1.0000    0.00480   0.97300   0.13900   Biso      1.000     H          0.096187  
         H12       1.0000    0.82080   0.35010   0.21140   Biso      1.000     H          0.10091   
         H13       1.0000    0.32840   0.79840   0.54600   Biso      1.000     H          0.142511  
         H14       1.0000    0.16170   0.97060   0.54970   Biso      1.000     H          0.13906300000000002           
         H15       1.0000    0.50480   0.47300   0.13900   Biso      1.000     H          0.096187  
         H16       1.0000    0.60840   0.04420   0.51940   Biso      1.000     H          0.12548199999999998           
         H17       1.0000    0.10840   0.54420   0.51940   Biso      1.000     H          0.12548199999999998           
         H18       1.0000    0.82840   0.70160   0.04600   Biso      1.000     H          0.142511  
         H19       1.0000    0.49520   0.52700   0.86100   Biso      1.000     H          0.096187  
         H20       1.0000    0.33830   0.47060   0.95030   Biso      1.000     H          0.13906300000000002           
         H21       1.0000    0.01780   0.59900   0.88190   Biso      1.000     H          0.134265  
         H22       1.0000    0.17920   0.64990   0.78860   Biso      1.000     H          0.10091   
         H23       1.0000    0.10840   0.45580   0.01940   Biso      1.000     H          0.12548199999999998           
         H24       1.0000    0.67920   0.85010   0.28860   Biso      1.000     H          0.10091   
         H25       1.0000    0.32840   0.20160   0.04600   Biso      1.000     H          0.142511  
         H26       1.0000    0.99520   0.02700   0.86100   Biso      1.000     H          0.096187  
         H27       1.0000    0.83830   0.97060   0.95030   Biso      1.000     H          0.13906300000000002           
         H28       1.0000    0.51780   0.09900   0.88190   Biso      1.000     H          0.134265  
         H29       1.0000    0.67920   0.14990   0.78860   Biso      1.000     H          0.10091   
         H30       1.0000    0.60840   0.95580   0.01940   Biso      1.000     H          0.12548499999999999           
         H31       1.0000    0.51780   0.90100   0.38190   Biso      1.000     H          0.134265  
         H32       1.0000    0.17920   0.35010   0.28860   Biso      1.000     H          0.10091   
         H33       1.0000    0.17160   0.29840   0.95400   Biso      1.000     H          0.142514  
         H34       1.0000    0.01780   0.40100   0.38190   Biso      1.000     H          0.134265  
         H35       1.0000    0.83830   0.02940   0.45030   Biso      1.000     H          0.13906300000000002           
         H36       1.0000    0.39160   0.95580   0.48060   Biso      1.000     H          0.12548499999999999           
         H37       1.0000    0.32080   0.14990   0.71140   Biso      1.000     H          0.10091   
         H38       1.0000    0.48220   0.09900   0.61810   Biso      1.000     H          0.134265  
         H39       1.0000    0.66170   0.52940   0.04970   Biso      1.000     H          0.13906300000000002           
         H40       1.0000    0.00480   0.02700   0.63900   Biso      1.000     H          0.096187  
         H41       1.0000    0.89160   0.45580   0.48060   Biso      1.000     H          0.12548499999999999           
         H42       1.0000    0.82080   0.64990   0.71140   Biso      1.000     H          0.10091   
         H43       1.0000    0.98220   0.59900   0.61810   Biso      1.000     H          0.134265  
         H44       1.0000    0.66170   0.47060   0.54970   Biso      1.000     H          0.13906300000000002           
         H45       1.0000    0.50480   0.52700   0.63900   Biso      1.000     H          0.096187  
         H46       1.0000    0.17160   0.70160   0.45400   Biso      1.000     H          0.142515  
         H47       1.0000    0.67160   0.20160   0.45400   Biso      1.000     H          0.142514  
         H48       1.0000    0.33830   0.52940   0.45030   Biso      1.000     H          0.13906300000000002           
         N1        1.0000    0.85330   0.90510   0.31818   Biso      1.000     N          -0.209673           
         N2        1.0000    0.14670   0.90510   0.18182   Biso      1.000     N          -0.209673           
         N3        1.0000    0.64670   0.40510   0.18182   Biso      1.000     N          -0.20967199999999997          
         N4        1.0000    0.14670   0.09490   0.68182   Biso      1.000     N          -0.20967199999999997          
         N5        1.0000    0.64670   0.59490   0.68182   Biso      1.000     N          -0.209673           
         N6        1.0000    0.85330   0.09490   0.81818   Biso      1.000     N          -0.20967199999999997          
         N7        1.0000    0.35330   0.59490   0.81818   Biso      1.000     N          -0.209673           
         N8        1.0000    0.35330   0.40510   0.31818   Biso      1.000     N          -0.209673           
         O1        1.0000    0.60280   0.70593   0.84632   Biso      1.000     O          -0.563285           
         O2        1.0000    0.29290   0.37702   0.07810   Biso      1.000     O          -0.599427           
         O3        1.0000    0.10280   0.79407   0.34632   Biso      1.000     O          -0.563285           
         O4        1.0000    0.70710   0.62298   0.92190   Biso      1.000     O          -0.599427           
         O5        1.0000    0.10280   0.20593   0.84632   Biso      1.000     O          -0.563285           
         O6        1.0000    0.20710   0.12298   0.92190   Biso      1.000     O          -0.599427           
         O7        1.0000    0.39720   0.70593   0.65368   Biso      1.000     O          -0.563286           
         O8        1.0000    0.29290   0.62298   0.57810   Biso      1.000     O          -0.599427           
         O9        1.0000    0.20710   0.87702   0.42190   Biso      1.000     O          -0.599426           
         O10       1.0000    0.89720   0.20593   0.65368   Biso      1.000     O          -0.563285           
         O11       1.0000    0.39720   0.29407   0.15368   Biso      1.000     O          -0.563286           
         O12       1.0000    0.89720   0.79407   0.15368   Biso      1.000     O          -0.563286           
         O13       1.0000    0.79290   0.87702   0.07810   Biso      1.000     O          -0.599426           
         O14       1.0000    0.60280   0.29407   0.34632   Biso      1.000     O          -0.563285           
         O15       1.0000    0.70710   0.37702   0.42190   Biso      1.000     O          -0.599427           
         O16       1.0000    0.79290   0.12298   0.57810   Biso      1.000     O          -0.599427           
         Zn1       1.0000    0.50000   0.35268   0.25000   Biso      1.000     Zn          0.7281    
         Zn2       1.0000    0.50000   0.64732   0.75000   Biso      1.000     Zn          0.7281    
         Zn3       1.0000    0.00000   0.14732   0.75000   Biso      1.000     Zn          0.7280989999999999  
         Zn4       1.0000    0.00000   0.85268   0.25000   Biso      1.000     Zn          0.7280989999999999 