
##########################################################################
#               Crystallographic Information Format file
#               Produced by PyCifRW module
#
#  This is a CIF file.  CIF has been adopted by the International
#  Union of Crystallography as the standard for data archiving and
#  transmission.
#
#  For information on this file format, follow the CIF links at
#  http://www.iucr.org
##########################################################################

data_image0

_cell_length_a                          12.471
_cell_length_b                          13.306
_cell_length_c                          15.711
_cell_angle_alpha                       90
_cell_angle_beta                        90
_cell_angle_gamma                       90
_symmetry_space_group_name_H-M          'P 1'
_symmetry_int_tables_number             1
loop_
  _symmetry_equiv_pos_as_xyz
         'x, y, z' 
loop_
  _atom_site_label
  _atom_site_occupancy
  _atom_site_fract_x
  _atom_site_fract_y
  _atom_site_fract_z
  _atom_site_thermal_displace_type
  _atom_site_B_iso_or_equiv
  _atom_site_type_symbol
  _atom_site_charge
         C1        1.0000    0.96780   0.31970   0.12910   Biso      1.000     C          0.6158560000000001  
         C2        1.0000    0.84710   0.63140   0.45360   Biso      1.000     C          -0.18996  
         C3        1.0000    0.77400   0.68660   0.40720   Biso      1.000     C          0.075542  
         C4        1.0000    0.52400   0.52820   0.03530   Biso      1.000     C          -0.041547           
         C5        1.0000    0.48930   0.61790   0.05820   Biso      1.000     C          -0.253171           
         C6        1.0000    0.53220   0.68030   0.12910   Biso      1.000     C          0.615851  
         C7        1.0000    0.47600   0.02820   0.53530   Biso      1.000     C          -0.041547           
         C8        1.0000    0.22600   0.18660   0.90720   Biso      1.000     C          0.075538  
         C9        1.0000    0.48630   0.00550   0.96130   Biso      1.000     C          -0.13258399999999998          
         C10       1.0000    0.32440   0.89970   0.78720   Biso      1.000     C          0.091843  
         C11       1.0000    0.39520   0.95580   0.82940   Biso      1.000     C          -0.179783           
         C12       1.0000    0.40740   0.94110   0.91380   Biso      1.000     C          0.177947  
         C13       1.0000    0.27400   0.81340   0.90720   Biso      1.000     C          0.075537  
         C14       1.0000    0.02400   0.97180   0.53530   Biso      1.000     C          -0.041547           
         C15       1.0000    0.98930   0.88210   0.55820   Biso      1.000     C          -0.253171           
         C16       1.0000    0.03220   0.81970   0.62910   Biso      1.000     C          0.615851  
         C17       1.0000    0.15290   0.13140   0.95360   Biso      1.000     C          -0.18995599999999999          
         C18       1.0000    0.48630   0.49450   0.53870   Biso      1.000     C          -0.132583           
         C19       1.0000    0.32440   0.60030   0.71280   Biso      1.000     C          0.091842  
         C20       1.0000    0.39520   0.54420   0.67060   Biso      1.000     C          -0.179783           
         C21       1.0000    0.90740   0.55890   0.41380   Biso      1.000     C          0.177939  
         C22       1.0000    0.40740   0.55890   0.58620   Biso      1.000     C          0.177947  
         C23       1.0000    0.89520   0.54420   0.32940   Biso      1.000     C          -0.1798   
         C24       1.0000    0.98630   0.49450   0.46130   Biso      1.000     C          -0.132582           
         C25       1.0000    0.10480   0.45580   0.67060   Biso      1.000     C          -0.179819           
         C26       1.0000    0.09260   0.44110   0.58620   Biso      1.000     C          0.17794400000000002           
         C27       1.0000    0.15290   0.36860   0.54640   Biso      1.000     C          -0.18995499999999998          
         C28       1.0000    0.22600   0.31340   0.59280   Biso      1.000     C          0.075542  
         C29       1.0000    0.47600   0.47180   0.96470   Biso      1.000     C          -0.041547           
         C30       1.0000    0.51070   0.38210   0.94180   Biso      1.000     C          -0.253171           
         C31       1.0000    0.46780   0.31970   0.87090   Biso      1.000     C          0.615851  
         C32       1.0000    0.01370   0.50550   0.53870   Biso      1.000     C          -0.13251400000000002          
         C33       1.0000    0.98630   0.00550   0.03870   Biso      1.000     C          -0.132583           
         C34       1.0000    0.82440   0.89970   0.21280   Biso      1.000     C          0.091842  
         C35       1.0000    0.89520   0.95580   0.17060   Biso      1.000     C          -0.179783           
         C36       1.0000    0.90740   0.94110   0.08620   Biso      1.000     C          0.177947  
         C37       1.0000    0.84710   0.86860   0.04640   Biso      1.000     C          -0.18995499999999998          
         C38       1.0000    0.77400   0.81340   0.09280   Biso      1.000     C          0.075541  
         C39       1.0000    0.52400   0.97180   0.46470   Biso      1.000     C          -0.041547           
         C40       1.0000    0.48930   0.88210   0.44180   Biso      1.000     C          -0.253171           
         C41       1.0000    0.53220   0.81970   0.37090   Biso      1.000     C          0.615851  
         C42       1.0000    0.46780   0.18030   0.62910   Biso      1.000     C          0.615851  
         C43       1.0000    0.51070   0.11790   0.55820   Biso      1.000     C          -0.253171           
         C44       1.0000    0.82440   0.60030   0.28720   Biso      1.000     C          0.091876  
         C45       1.0000    0.34710   0.63140   0.54640   Biso      1.000     C          -0.18995599999999999          
         C46       1.0000    0.34710   0.86860   0.95360   Biso      1.000     C          -0.189951           
         C47       1.0000    0.17560   0.39970   0.71280   Biso      1.000     C          0.09187999999999999           
         C48       1.0000    0.17560   0.10030   0.78720   Biso      1.000     C          0.091843  
         C49       1.0000    0.97600   0.02820   0.46470   Biso      1.000     C          -0.041547           
         C50       1.0000    0.01370   0.99450   0.96130   Biso      1.000     C          -0.13251400000000002          
         C51       1.0000    0.72600   0.18660   0.09280   Biso      1.000     C          0.075538  
         C52       1.0000    0.51370   0.50550   0.46130   Biso      1.000     C          -0.13251400000000002          
         C53       1.0000    0.65290   0.13140   0.04640   Biso      1.000     C          -0.18995499999999998          
         C54       1.0000    0.59260   0.05890   0.08620   Biso      1.000     C          0.177932  
         C55       1.0000    0.60480   0.04420   0.17060   Biso      1.000     C          -0.1798   
         C56       1.0000    0.67560   0.39970   0.28720   Biso      1.000     C          0.091843  
         C57       1.0000    0.60480   0.45580   0.32940   Biso      1.000     C          -0.179785           
         C58       1.0000    0.67560   0.10030   0.21280   Biso      1.000     C          0.091877  
         C59       1.0000    0.96780   0.18030   0.37090   Biso      1.000     C          0.615851  
         C60       1.0000    0.51370   0.99450   0.03870   Biso      1.000     C          -0.13251300000000002          
         C61       1.0000    0.65290   0.36860   0.45360   Biso      1.000     C          -0.189961           
         C62       1.0000    0.59260   0.44110   0.41380   Biso      1.000     C          0.177947  
         C63       1.0000    0.01070   0.11790   0.44180   Biso      1.000     C          -0.253171           
         C64       1.0000    0.10480   0.04420   0.82940   Biso      1.000     C          -0.179784           
         C65       1.0000    0.27400   0.68660   0.59280   Biso      1.000     C          0.075541  
         C66       1.0000    0.01070   0.38210   0.05820   Biso      1.000     C          -0.253215           
         C67       1.0000    0.72600   0.31340   0.40720   Biso      1.000     C          0.075543  
         C68       1.0000    0.98930   0.61790   0.94180   Biso      1.000     C          -0.253215           
         C69       1.0000    0.09260   0.05890   0.91380   Biso      1.000     C          0.177946  
         C70       1.0000    0.97600   0.47180   0.03530   Biso      1.000     C          -0.041509           
         C71       1.0000    0.03220   0.68030   0.87090   Biso      1.000     C          0.6158560000000001  
         C72       1.0000    0.02400   0.52820   0.96470   Biso      1.000     C          -0.041507999999999996         
         H1        1.0000    0.14450   0.35690   0.48840   Biso      1.000     H          0.13603800000000002           
         H2        1.0000    0.58100   0.00030   0.43510   Biso      1.000     H          0.111411  
         H3        1.0000    0.43260   0.85540   0.47280   Biso      1.000     H          0.129081  
         H4        1.0000    0.06740   0.35540   0.02720   Biso      1.000     H          0.129084  
         H5        1.0000    0.18200   0.08880   0.72900   Biso      1.000     H          0.093753  
         H6        1.0000    0.48220   0.55810   0.43140   Biso      1.000     H          0.123297  
         H7        1.0000    0.73260   0.76540   0.06510   Biso      1.000     H          0.102375  
         H8        1.0000    0.76740   0.26540   0.43490   Biso      1.000     H          0.102375  
         H9        1.0000    0.26740   0.26540   0.56510   Biso      1.000     H          0.102375  
         H10       1.0000    0.56740   0.35540   0.97280   Biso      1.000     H          0.129081  
         H11       1.0000    0.91900   0.50030   0.06490   Biso      1.000     H          0.111408  
         H12       1.0000    0.56450   0.50430   0.30120   Biso      1.000     H          0.143602  
         H13       1.0000    0.93550   0.00430   0.19880   Biso      1.000     H          0.143602  
         H14       1.0000    0.41900   0.50030   0.93510   Biso      1.000     H          0.111411  
         H15       1.0000    0.81800   0.91120   0.27100   Biso      1.000     H          0.093753  
         H16       1.0000    0.01780   0.05810   0.06860   Biso      1.000     H          0.123301  
         H17       1.0000    0.98220   0.55810   0.56860   Biso      1.000     H          0.123297  
         H18       1.0000    0.64450   0.35690   0.51160   Biso      1.000     H          0.13603800000000002           
         H19       1.0000    0.18200   0.41120   0.77100   Biso      1.000     H          0.09375   
         H20       1.0000    0.68200   0.41120   0.22900   Biso      1.000     H          0.093753  
         H21       1.0000    0.85550   0.85690   0.98840   Biso      1.000     H          0.13603800000000002           
         H22       1.0000    0.35550   0.64310   0.48840   Biso      1.000     H          0.13603800000000002           
         H23       1.0000    0.81800   0.58880   0.22900   Biso      1.000     H          0.09375   
         H24       1.0000    0.48220   0.94190   0.06860   Biso      1.000     H          0.123297  
         H25       1.0000    0.35550   0.85690   0.01160   Biso      1.000     H          0.13603800000000002           
         H26       1.0000    0.06450   0.50430   0.69880   Biso      1.000     H          0.143604  
         H27       1.0000    0.23260   0.76540   0.93490   Biso      1.000     H          0.102376  
         H28       1.0000    0.06450   0.99570   0.80120   Biso      1.000     H          0.143602  
         H29       1.0000    0.08100   0.00030   0.56490   Biso      1.000     H          0.111411  
         H30       1.0000    0.43550   0.00430   0.80120   Biso      1.000     H          0.143602  
         H31       1.0000    0.93260   0.85540   0.52720   Biso      1.000     H          0.129081  
         H32       1.0000    0.14450   0.14310   0.01160   Biso      1.000     H          0.13603800000000002           
         H33       1.0000    0.51780   0.44190   0.56860   Biso      1.000     H          0.123301  
         H34       1.0000    0.93260   0.64460   0.97280   Biso      1.000     H          0.129084  
         H35       1.0000    0.31800   0.58880   0.77100   Biso      1.000     H          0.093753  
         H36       1.0000    0.43550   0.49570   0.69880   Biso      1.000     H          0.143602  
         H37       1.0000    0.08100   0.49970   0.93510   Biso      1.000     H          0.111409  
         H38       1.0000    0.26740   0.23460   0.93490   Biso      1.000     H          0.102376  
         H39       1.0000    0.01780   0.44190   0.43140   Biso      1.000     H          0.123301  
         H40       1.0000    0.68200   0.08880   0.27100   Biso      1.000     H          0.09375   
         H41       1.0000    0.51780   0.05810   0.93140   Biso      1.000     H          0.123301  
         H42       1.0000    0.06740   0.14460   0.47280   Biso      1.000     H          0.129081  
         H43       1.0000    0.93550   0.49570   0.30120   Biso      1.000     H          0.143603  
         H44       1.0000    0.23260   0.73460   0.56510   Biso      1.000     H          0.102375  
         H45       1.0000    0.85550   0.64310   0.51160   Biso      1.000     H          0.13603800000000002           
         H46       1.0000    0.73260   0.73460   0.43490   Biso      1.000     H          0.102375  
         H47       1.0000    0.31800   0.91120   0.72900   Biso      1.000     H          0.093753  
         H48       1.0000    0.76740   0.23460   0.06510   Biso      1.000     H          0.102376  
         H49       1.0000    0.43260   0.64460   0.02720   Biso      1.000     H          0.129081  
         H50       1.0000    0.64450   0.14310   0.98840   Biso      1.000     H          0.13603800000000002           
         H51       1.0000    0.56740   0.14460   0.52720   Biso      1.000     H          0.129081  
         H52       1.0000    0.98220   0.94190   0.93140   Biso      1.000     H          0.123297  
         H53       1.0000    0.41900   0.99970   0.56490   Biso      1.000     H          0.111411  
         H54       1.0000    0.56450   0.99570   0.19880   Biso      1.000     H          0.143603  
         H55       1.0000    0.58100   0.49970   0.06490   Biso      1.000     H          0.111411  
         H56       1.0000    0.91900   0.99970   0.43510   Biso      1.000     H          0.111411  
         N1        1.0000    0.23910   0.32730   0.67860   Biso      1.000     N          -0.22766399999999998          
         N2        1.0000    0.23910   0.17270   0.82140   Biso      1.000     N          -0.22765900000000003          
         N3        1.0000    0.26090   0.82730   0.82140   Biso      1.000     N          -0.22765900000000003          
         N4        1.0000    0.76090   0.82730   0.17860   Biso      1.000     N          -0.22766  
         N5        1.0000    0.73910   0.32730   0.32140   Biso      1.000     N          -0.22765900000000003          
         N6        1.0000    0.73910   0.17270   0.17860   Biso      1.000     N          -0.227663           
         N7        1.0000    0.76090   0.67270   0.32140   Biso      1.000     N          -0.227663           
         N8        1.0000    0.26090   0.67270   0.67860   Biso      1.000     N          -0.22765900000000003          
         O1        1.0000    0.89240   0.36310   0.17330   Biso      1.000     O          -0.590026           
         O2        1.0000    0.99190   0.23240   0.14050   Biso      1.000     O          -0.550481           
         O3        1.0000    0.89240   0.13690   0.32670   Biso      1.000     O          -0.590026           
         O4        1.0000    0.99190   0.26760   0.35950   Biso      1.000     O          -0.550481           
         O5        1.0000    0.10760   0.63690   0.82670   Biso      1.000     O          -0.590026           
         O6        1.0000    0.60760   0.86310   0.32670   Biso      1.000     O          -0.590025           
         O7        1.0000    0.50810   0.73240   0.35950   Biso      1.000     O          -0.5504819999999999           
         O8        1.0000    0.10760   0.86310   0.67330   Biso      1.000     O          -0.590025           
         O9        1.0000    0.49190   0.26760   0.64050   Biso      1.000     O          -0.550481           
         O10       1.0000    0.39240   0.13690   0.67330   Biso      1.000     O          -0.590025           
         O11       1.0000    0.60760   0.63690   0.17330   Biso      1.000     O          -0.590026           
         O12       1.0000    0.49190   0.23240   0.85950   Biso      1.000     O          -0.550481           
         O13       1.0000    0.39240   0.36310   0.82670   Biso      1.000     O          -0.590026           
         O14       1.0000    0.50810   0.76760   0.14050   Biso      1.000     O          -0.5504819999999999           
         O15       1.0000    0.00810   0.76760   0.85950   Biso      1.000     O          -0.5504819999999999           
         O16       1.0000    0.00810   0.73240   0.64050   Biso      1.000     O          -0.5504819999999999           
         Zn1       1.0000    0.14991   0.75000   0.75000   Biso      1.000     Zn          0.728867  
         Zn2       1.0000    0.85009   0.25000   0.25000   Biso      1.000     Zn          0.728867  
         Zn3       1.0000    0.64991   0.75000   0.25000   Biso      1.000     Zn          0.728867  
         Zn4       1.0000    0.35009   0.25000   0.75000   Biso      1.000     Zn          0.728867 