
##########################################################################
#               Crystallographic Information Format file
#               Produced by PyCifRW module
#
#  This is a CIF file.  CIF has been adopted by the International
#  Union of Crystallography as the standard for data archiving and
#  transmission.
#
#  For information on this file format, follow the CIF links at
#  http://www.iucr.org
##########################################################################

data_image0

_cell_length_a                          12.0591
_cell_length_b                          19.1647
_cell_length_c                          4.9114
_cell_angle_alpha                       90
_cell_angle_beta                        90
_cell_angle_gamma                       90
_symmetry_space_group_name_H-M          'P 1'
_symmetry_int_tables_number             1
loop_
  _symmetry_equiv_pos_as_xyz
         'x, y, z' 
loop_
  _atom_site_label
  _atom_site_occupancy
  _atom_site_fract_x
  _atom_site_fract_y
  _atom_site_fract_z
  _atom_site_thermal_displace_type
  _atom_site_B_iso_or_equiv
  _atom_site_type_symbol
  _atom_site_charge
         Al1       1.0000    0.50000   0.00000   0.00000   Biso      1.000     Al          1.782668  
         Al2       1.0000    0.00000   0.50000   0.00000   Biso      1.000     Al          1.782662  
         Al3       1.0000    0.25000   0.06234   0.73370   Biso      1.000     Al          1.7805799999999998  
         Al4       1.0000    0.25000   0.43766   0.73370   Biso      1.000     Al          1.780577  
         Al5       1.0000    0.75000   0.93766   0.26630   Biso      1.000     Al          1.780578  
         Al6       1.0000    0.75000   0.56234   0.26630   Biso      1.000     Al          1.780577  
         Al7       1.0000    0.00000   0.00000   0.00000   Biso      1.000     Al          1.7826650000000002  
         Al8       1.0000    0.50000   0.50000   0.00000   Biso      1.000     Al          1.78266   
         C1        1.0000    0.01240   0.25000   0.45140   Biso      1.000     C          0.062479  
         C2        1.0000    0.98760   0.75000   0.54860   Biso      1.000     C          0.062479  
         C3        1.0000    0.44840   0.81242   0.44080   Biso      1.000     C          -0.15400999999999998          
         C4        1.0000    0.51240   0.75000   0.54860   Biso      1.000     C          0.062478  
         C5        1.0000    0.55160   0.18758   0.55920   Biso      1.000     C          -0.154005           
         C6        1.0000    0.94840   0.31242   0.55920   Biso      1.000     C          -0.15401199999999998          
         C7        1.0000    0.44840   0.68758   0.44080   Biso      1.000     C          -0.154007           
         C8        1.0000    0.48760   0.25000   0.45140   Biso      1.000     C          0.062476  
         C9        1.0000    0.05160   0.68758   0.44080   Biso      1.000     C          -0.154014           
         C10       1.0000    0.05160   0.81242   0.44080   Biso      1.000     C          -0.15400999999999998          
         C11       1.0000    0.94840   0.18758   0.55920   Biso      1.000     C          -0.15401199999999998          
         C12       1.0000    0.55160   0.31242   0.55920   Biso      1.000     C          -0.15401800000000002          
         F1        1.0000    0.35390   0.48650   0.92630   Biso      1.000     F          -0.558972           
         F2        1.0000    0.64610   0.51350   0.07370   Biso      1.000     F          -0.558971           
         F3        1.0000    0.35390   0.01350   0.92630   Biso      1.000     F          -0.558974           
         F4        1.0000    0.85390   0.51350   0.07370   Biso      1.000     F          -0.558971           
         F5        1.0000    0.85390   0.98650   0.07370   Biso      1.000     F          -0.5589729999999999           
         F6        1.0000    0.14610   0.48650   0.92630   Biso      1.000     F          -0.558971           
         F7        1.0000    0.64610   0.98650   0.07370   Biso      1.000     F          -0.558974           
         F8        1.0000    0.14610   0.01350   0.92630   Biso      1.000     F          -0.5589729999999999           
         O1        1.0000    0.35760   0.11020   0.53440   Biso      1.000     O          -0.830623           
         O2        1.0000    0.54130   0.04920   0.68280   Biso      1.000     O          -0.8406959999999999           
         O3        1.0000    0.54130   0.45080   0.68280   Biso      1.000     O          -0.840692           
         O4        1.0000    0.35760   0.38980   0.53440   Biso      1.000     O          -0.83062  
         O5        1.0000    0.95870   0.04920   0.68280   Biso      1.000     O          -0.8406950000000001           
         O6        1.0000    0.95870   0.45080   0.68280   Biso      1.000     O          -0.840693           
         O7        1.0000    0.14240   0.38980   0.53440   Biso      1.000     O          -0.830619           
         O8        1.0000    0.04130   0.54920   0.31720   Biso      1.000     O          -0.840692           
         O9        1.0000    0.49700   0.08533   0.20030   Biso      1.000     O          -0.798583           
         O10       1.0000    0.00300   0.41467   0.20030   Biso      1.000     O          -0.7985800000000001           
         O11       1.0000    0.49700   0.41467   0.20030   Biso      1.000     O          -0.798582           
         O12       1.0000    0.64240   0.61020   0.46560   Biso      1.000     O          -0.83062  
         O13       1.0000    0.50300   0.58533   0.79970   Biso      1.000     O          -0.798583           
         O14       1.0000    0.00300   0.08533   0.20030   Biso      1.000     O          -0.798581           
         O15       1.0000    0.99700   0.58533   0.79970   Biso      1.000     O          -0.798581           
         O16       1.0000    0.04130   0.95080   0.31720   Biso      1.000     O          -0.840694           
         O17       1.0000    0.85760   0.88980   0.46560   Biso      1.000     O          -0.8306209999999999           
         O18       1.0000    0.99700   0.91467   0.79970   Biso      1.000     O          -0.798581           
         O19       1.0000    0.85760   0.61020   0.46560   Biso      1.000     O          -0.830619           
         O20       1.0000    0.45870   0.95080   0.31720   Biso      1.000     O          -0.8406959999999999           
         O21       1.0000    0.64240   0.88980   0.46560   Biso      1.000     O          -0.8306209999999999           
         O22       1.0000    0.50300   0.91467   0.79970   Biso      1.000     O          -0.798582           
         O23       1.0000    0.14240   0.11020   0.53440   Biso      1.000     O          -0.830622           
         O24       1.0000    0.45870   0.54920   0.31720   Biso      1.000     O          -0.840693           
         P1        1.0000    0.51543   0.89529   0.49760   Biso      1.000     P          1.37002   
         P2        1.0000    0.48457   0.10471   0.50240   Biso      1.000     P          1.37002   
         P3        1.0000    0.98457   0.60471   0.49760   Biso      1.000     P          1.370018  
         P4        1.0000    0.01543   0.39529   0.50240   Biso      1.000     P          1.370018  
         P5        1.0000    0.51543   0.60471   0.49760   Biso      1.000     P          1.370019  
         P6        1.0000    0.98457   0.89529   0.49760   Biso      1.000     P          1.370019  
         P7        1.0000    0.48457   0.39529   0.50240   Biso      1.000     P          1.3700219999999999  
         P8        1.0000    0.01543   0.10471   0.50240   Biso      1.000     P          1.370021 