
##########################################################################
#               Crystallographic Information Format file
#               Produced by PyCifRW module
#
#  This is a CIF file.  CIF has been adopted by the International
#  Union of Crystallography as the standard for data archiving and
#  transmission.
#
#  For information on this file format, follow the CIF links at
#  http://www.iucr.org
##########################################################################

data_image0

_cell_length_a                          9.0656
_cell_length_b                          10.229
_cell_length_c                          11.764
_cell_angle_alpha                       115.77
_cell_angle_beta                        90.1891
_cell_angle_gamma                       90
_symmetry_space_group_name_H-M          'P 1'
_symmetry_int_tables_number             1
loop_
  _symmetry_equiv_pos_as_xyz
         'x, y, z' 
loop_
  _atom_site_label
  _atom_site_occupancy
  _atom_site_fract_x
  _atom_site_fract_y
  _atom_site_fract_z
  _atom_site_thermal_displace_type
  _atom_site_B_iso_or_equiv
  _atom_site_type_symbol
  _atom_site_charge
         C1        1.0000    0.44510   0.70810   0.78920   Biso      1.000     C          0.117745  
         C2        1.0000    0.05490   0.91890   0.21080   Biso      1.000     C          0.11617899999999999           
         C3        1.0000    0.13920   0.86172   0.10304   Biso      1.000     C          -0.177984           
         C4        1.0000    0.20240   0.95345   0.05730   Biso      1.000     C          0.10351300000000001           
         C5        1.0000    0.17400   0.09999   0.12298   Biso      1.000     C          -0.190582           
         C6        1.0000    0.08700   0.14874   0.23068   Biso      1.000     C          0.109723  
         C7        1.0000    0.36080   0.75868   0.89696   Biso      1.000     C          -0.179973           
         C8        1.0000    0.29760   0.89615   0.94270   Biso      1.000     C          0.10525799999999999           
         C9        1.0000    0.32600   0.97701   0.87702   Biso      1.000     C          -0.193037           
         C10       1.0000    0.94510   0.08110   0.78920   Biso      1.000     C          0.11617899999999999           
         C11       1.0000    0.41300   0.91806   0.76932   Biso      1.000     C          0.110793  
         C12       1.0000    0.79760   0.04655   0.94270   Biso      1.000     C          0.10351400000000001           
         C13       1.0000    0.82600   0.90001   0.87702   Biso      1.000     C          -0.190582           
         C14       1.0000    0.91300   0.85126   0.76932   Biso      1.000     C          0.109723  
         C15       1.0000    0.55490   0.29190   0.21080   Biso      1.000     C          0.117745  
         C16       1.0000    0.63920   0.24132   0.10304   Biso      1.000     C          -0.179973           
         C17       1.0000    0.70240   0.10385   0.05730   Biso      1.000     C          0.10525799999999999           
         C18       1.0000    0.67400   0.02299   0.12298   Biso      1.000     C          -0.193037           
         C19       1.0000    0.58700   0.08194   0.23068   Biso      1.000     C          0.110793  
         C20       1.0000    0.86080   0.13828   0.89696   Biso      1.000     C          -0.17798599999999998          
         H1        1.0000    0.65380   0.29880   0.06080   Biso      1.000     H          0.136596  
         H2        1.0000    0.71270   0.93000   0.09540   Biso      1.000     H          0.130278  
         H3        1.0000    0.51460   0.38430   0.24020   Biso      1.000     H          0.10810499999999999           
         H4        1.0000    0.56880   0.02620   0.27400   Biso      1.000     H          0.096336  
         H5        1.0000    0.93120   0.75220   0.72600   Biso      1.000     H          0.096135  
         H6        1.0000    0.88590   0.52730   0.69360   Biso      1.000     H          0.44369899999999995           
         H7        1.0000    0.38590   0.16630   0.69360   Biso      1.000     H          0.442902  
         H8        1.0000    0.15380   0.76200   0.06080   Biso      1.000     H          0.136217  
         H9        1.0000    0.21270   0.16540   0.09540   Biso      1.000     H          0.129058  
         H10       1.0000    0.06880   0.24780   0.27400   Biso      1.000     H          0.096135  
         H11       1.0000    0.61410   0.83370   0.30640   Biso      1.000     H          0.442902  
         H12       1.0000    0.48540   0.61570   0.75980   Biso      1.000     H          0.10810499999999999           
         H13       1.0000    0.01460   0.85590   0.24020   Biso      1.000     H          0.10883399999999999           
         H14       1.0000    0.28730   0.07000   0.90460   Biso      1.000     H          0.130278  
         H15       1.0000    0.43120   0.97380   0.72600   Biso      1.000     H          0.096337  
         H16       1.0000    0.11410   0.47270   0.30640   Biso      1.000     H          0.4437    
         H17       1.0000    0.98540   0.14410   0.75980   Biso      1.000     H          0.108833  
         H18       1.0000    0.84620   0.23800   0.93920   Biso      1.000     H          0.136217  
         H19       1.0000    0.78730   0.83460   0.90460   Biso      1.000     H          0.129058  
         H20       1.0000    0.34620   0.70120   0.93920   Biso      1.000     H          0.136598  
         N1        1.0000    0.52850   0.21408   0.27496   Biso      1.000     N          -0.22686399999999998          
         N2        1.0000    0.97150   0.93912   0.72504   Biso      1.000     N          -0.226202           
         N3        1.0000    0.47150   0.78592   0.72504   Biso      1.000     N          -0.226863           
         N4        1.0000    0.02850   0.06088   0.27496   Biso      1.000     N          -0.22620300000000002          
         O1        1.0000    0.78460   0.03735   0.47482   Biso      1.000     O          -0.8331850000000001           
         O2        1.0000    0.40840   0.63197   0.43214   Biso      1.000     O          -0.819583           
         O3        1.0000    0.59160   0.36803   0.56786   Biso      1.000     O          -0.819585           
         O4        1.0000    0.90840   0.80017   0.43214   Biso      1.000     O          -0.819845           
         O5        1.0000    0.19400   0.51129   0.30858   Biso      1.000     O          -0.732631           
         O6        1.0000    0.28460   0.43747   0.47482   Biso      1.000     O          -0.8330930000000001           
         O7        1.0000    0.15850   0.66956   0.54098   Biso      1.000     O          -0.8183159999999999           
         O8        1.0000    0.69400   0.79729   0.30858   Biso      1.000     O          -0.7317279999999999           
         O9        1.0000    0.65850   0.87142   0.54098   Biso      1.000     O          -0.817847           
         O10       1.0000    0.34150   0.12858   0.45902   Biso      1.000     O          -0.8178489999999999           
         O11       1.0000    0.80600   0.48871   0.69142   Biso      1.000     O          -0.732632           
         O12       1.0000    0.30600   0.20271   0.69142   Biso      1.000     O          -0.7317279999999999           
         O13       1.0000    0.09160   0.19983   0.56786   Biso      1.000     O          -0.819844           
         O14       1.0000    0.84150   0.33044   0.45902   Biso      1.000     O          -0.818317           
         O15       1.0000    0.21540   0.96265   0.52518   Biso      1.000     O          -0.8331850000000001           
         O16       1.0000    0.71540   0.56253   0.52518   Biso      1.000     O          -0.833091           
         P1        1.0000    0.23671   0.12070   0.55614   Biso      1.000     P          1.5901399999999999  
         P2        1.0000    0.26329   0.56456   0.44386   Biso      1.000     P          1.590498  
         P3        1.0000    0.76329   0.87930   0.44386   Biso      1.000     P          1.590139  
         P4        1.0000    0.73671   0.43544   0.55614   Biso      1.000     P          1.5905    
         Zn1       1.0000    0.42996   0.29312   0.44688   Biso      1.000     Zn          0.96429   
         Zn2       1.0000    0.07004   0.84624   0.55312   Biso      1.000     Zn          0.9645729999999999  
         Zn3       1.0000    0.57004   0.70688   0.55312   Biso      1.000     Zn          0.9642879999999999  
         Zn4       1.0000    0.92996   0.15376   0.44688   Biso      1.000     Zn          0.9645729999999999 