
##########################################################################
#               Crystallographic Information Format file
#               Produced by PyCifRW module
#
#  This is a CIF file.  CIF has been adopted by the International
#  Union of Crystallography as the standard for data archiving and
#  transmission.
#
#  For information on this file format, follow the CIF links at
#  http://www.iucr.org
##########################################################################

data_image0

_cell_length_a                          11.4325
_cell_length_b                          23.171
_cell_length_c                          9.7852
_cell_angle_alpha                       90
_cell_angle_beta                        102.152
_cell_angle_gamma                       90
_symmetry_space_group_name_H-M          'P 1'
_symmetry_int_tables_number             1
loop_
  _symmetry_equiv_pos_as_xyz
         'x, y, z' 
loop_
  _atom_site_label
  _atom_site_occupancy
  _atom_site_fract_x
  _atom_site_fract_y
  _atom_site_fract_z
  _atom_site_thermal_displace_type
  _atom_site_B_iso_or_equiv
  _atom_site_type_symbol
  _atom_site_charge
         C1        1.0000    0.51180   0.81563   0.98520   Biso      1.000     C          -0.044695           
         C2        1.0000    0.88630   0.39658   0.10610   Biso      1.000     C          -0.15248299999999998          
         C3        1.0000    0.42640   0.22859   0.08610   Biso      1.000     C          0.6487850000000001  
         C4        1.0000    0.52840   0.08494   0.96760   Biso      1.000     C          0.150091  
         C5        1.0000    0.50780   0.02460   0.98860   Biso      1.000     C          -0.11341500000000002          
         C6        1.0000    0.47160   0.91506   0.03240   Biso      1.000     C          0.150074  
         C7        1.0000    0.46540   0.12615   0.02770   Biso      1.000     C          -0.150544           
         C8        1.0000    0.57360   0.77141   0.91390   Biso      1.000     C          0.6487850000000001  
         C9        1.0000    0.72860   0.18107   0.80310   Biso      1.000     C          0.6251399999999999  
         C10       1.0000    0.48820   0.18437   0.01480   Biso      1.000     C          -0.044693000000000004         
         C11       1.0000    0.49220   0.97540   0.01140   Biso      1.000     C          -0.113277           
         C12       1.0000    0.61370   0.10342   0.89390   Biso      1.000     C          -0.152482           
         C13       1.0000    0.07250   0.29798   0.44020   Biso      1.000     C          -0.092734           
         C14       1.0000    0.57250   0.20202   0.94020   Biso      1.000     C          -0.092734           
         C15       1.0000    0.11370   0.39658   0.39390   Biso      1.000     C          -0.15248299999999998          
         C16       1.0000    0.63530   0.16169   0.88000   Biso      1.000     C          -0.011235           
         C17       1.0000    0.98820   0.31563   0.51480   Biso      1.000     C          -0.044694           
         C18       1.0000    0.92750   0.29798   0.05980   Biso      1.000     C          -0.092734           
         C19       1.0000    0.52840   0.91506   0.46760   Biso      1.000     C          0.15009   
         C20       1.0000    0.48820   0.81563   0.51480   Biso      1.000     C          -0.044696           
         C21       1.0000    0.63530   0.83831   0.38000   Biso      1.000     C          -0.011236           
         C22       1.0000    0.92640   0.72859   0.08610   Biso      1.000     C          0.6487850000000001  
         C23       1.0000    0.02840   0.58494   0.96760   Biso      1.000     C          0.150091  
         C24       1.0000    0.00780   0.52460   0.98860   Biso      1.000     C          -0.11341500000000002          
         C25       1.0000    0.72860   0.81893   0.30310   Biso      1.000     C          0.6251399999999999  
         C26       1.0000    0.42640   0.77141   0.58610   Biso      1.000     C          0.6487850000000001  
         C27       1.0000    0.96540   0.62615   0.02770   Biso      1.000     C          -0.150544           
         C28       1.0000    0.13530   0.66169   0.88000   Biso      1.000     C          -0.011236           
         C29       1.0000    0.98820   0.68437   0.01480   Biso      1.000     C          -0.044693000000000004         
         C30       1.0000    0.46540   0.87385   0.52770   Biso      1.000     C          -0.150541           
         C31       1.0000    0.11370   0.60342   0.89390   Biso      1.000     C          -0.152481           
         C32       1.0000    0.50780   0.97540   0.48860   Biso      1.000     C          -0.11341500000000002          
         C33       1.0000    0.07250   0.70202   0.94020   Biso      1.000     C          -0.092734           
         C34       1.0000    0.22860   0.68107   0.80310   Biso      1.000     C          0.6251399999999999  
         C35       1.0000    0.01180   0.31563   0.98520   Biso      1.000     C          -0.044694           
         C36       1.0000    0.86470   0.33831   0.12000   Biso      1.000     C          -0.011234000000000001         
         C37       1.0000    0.77140   0.31893   0.19690   Biso      1.000     C          0.6251399999999999  
         C38       1.0000    0.49220   0.02460   0.51140   Biso      1.000     C          -0.113276           
         C39       1.0000    0.92640   0.27141   0.58610   Biso      1.000     C          0.6487850000000001  
         C40       1.0000    0.53460   0.12615   0.47230   Biso      1.000     C          -0.150545           
         C41       1.0000    0.27140   0.18107   0.69690   Biso      1.000     C          0.6251399999999999  
         C42       1.0000    0.36470   0.16169   0.62000   Biso      1.000     C          -0.011235           
         C43       1.0000    0.51180   0.18437   0.48520   Biso      1.000     C          -0.044692           
         C44       1.0000    0.47160   0.08494   0.53240   Biso      1.000     C          0.150074  
         C45       1.0000    0.53460   0.87385   0.97230   Biso      1.000     C          -0.150543           
         C46       1.0000    0.27140   0.81893   0.19690   Biso      1.000     C          0.6251399999999999  
         C47       1.0000    0.42750   0.20202   0.55980   Biso      1.000     C          -0.09273300000000001          
         C48       1.0000    0.07360   0.27141   0.91390   Biso      1.000     C          0.6487850000000001  
         C49       1.0000    0.36470   0.83831   0.12000   Biso      1.000     C          -0.011235           
         C50       1.0000    0.42750   0.79798   0.05980   Biso      1.000     C          -0.09273300000000001          
         C51       1.0000    0.38630   0.89658   0.10610   Biso      1.000     C          -0.152482           
         C52       1.0000    0.38630   0.10342   0.60610   Biso      1.000     C          -0.152482           
         C53       1.0000    0.57360   0.22859   0.41390   Biso      1.000     C          0.6487850000000001  
         C54       1.0000    0.97160   0.41506   0.03240   Biso      1.000     C          0.150074  
         C55       1.0000    0.99220   0.47540   0.01140   Biso      1.000     C          -0.113277           
         C56       1.0000    0.07360   0.72859   0.41390   Biso      1.000     C          0.6487850000000001  
         C57       1.0000    0.97160   0.58494   0.53240   Biso      1.000     C          0.150091  
         C58       1.0000    0.99220   0.52460   0.51140   Biso      1.000     C          -0.11341500000000002          
         C59       1.0000    0.13530   0.33831   0.38000   Biso      1.000     C          -0.011234000000000001         
         C60       1.0000    0.03460   0.62615   0.47230   Biso      1.000     C          -0.150544           
         C61       1.0000    0.77140   0.68107   0.69690   Biso      1.000     C          0.6251399999999999  
         C62       1.0000    0.86470   0.66169   0.62000   Biso      1.000     C          -0.011236           
         C63       1.0000    0.01180   0.68437   0.48520   Biso      1.000     C          -0.044693000000000004         
         C64       1.0000    0.22860   0.31893   0.30310   Biso      1.000     C          0.6251399999999999  
         C65       1.0000    0.88630   0.60342   0.60610   Biso      1.000     C          -0.152481           
         C66       1.0000    0.96540   0.37385   0.52770   Biso      1.000     C          -0.150543           
         C67       1.0000    0.92750   0.70202   0.55980   Biso      1.000     C          -0.092734           
         C68       1.0000    0.03460   0.37385   0.97230   Biso      1.000     C          -0.150543           
         C69       1.0000    0.00780   0.47540   0.48860   Biso      1.000     C          -0.113277           
         C70       1.0000    0.02840   0.41506   0.46760   Biso      1.000     C          0.150074  
         C71       1.0000    0.61370   0.89658   0.39390   Biso      1.000     C          -0.152481           
         C72       1.0000    0.57250   0.79798   0.44020   Biso      1.000     C          -0.09273300000000001          
         Ca1       1.0000    0.50000   0.35386   0.25000   Biso      1.000     Ca          1.511484  
         Ca2       1.0000    0.50000   0.64614   0.75000   Biso      1.000     Ca          1.511483  
         Ca3       1.0000    0.00000   0.14614   0.75000   Biso      1.000     Ca          1.511484  
         Ca4       1.0000    0.00000   0.85386   0.25000   Biso      1.000     Ca          1.511483  
         H1        1.0000    0.30550   0.76420   0.66540   Biso      1.000     H          0.41537799999999997           
         H2        1.0000    0.09200   0.61440   0.42350   Biso      1.000     H          0.128801  
         H3        1.0000    0.84370   0.57640   0.64610   Biso      1.000     H          0.122965  
         H4        1.0000    0.91300   0.74120   0.56930   Biso      1.000     H          0.12912200000000001           
         H5        1.0000    0.90800   0.38560   0.57650   Biso      1.000     H          0.1288    
         H6        1.0000    0.19450   0.73580   0.33460   Biso      1.000     H          0.41537799999999997           
         H7        1.0000    0.09200   0.38560   0.92350   Biso      1.000     H          0.1288    
         H8        1.0000    0.59200   0.88560   0.92350   Biso      1.000     H          0.1288    
         H9        1.0000    0.30550   0.23580   0.16540   Biso      1.000     H          0.41537799999999997           
         H10       1.0000    0.34370   0.07640   0.64610   Biso      1.000     H          0.122964  
         H11       1.0000    0.41300   0.24120   0.56930   Biso      1.000     H          0.12912200000000001           
         H12       1.0000    0.69450   0.76420   0.83460   Biso      1.000     H          0.41537799999999997           
         H13       1.0000    0.69450   0.23580   0.33460   Biso      1.000     H          0.41537799999999997           
         H14       1.0000    0.41300   0.75880   0.06930   Biso      1.000     H          0.12912200000000001           
         H15       1.0000    0.59200   0.11440   0.42350   Biso      1.000     H          0.1288    
         H16       1.0000    0.15630   0.42360   0.35390   Biso      1.000     H          0.122964  
         H17       1.0000    0.84370   0.42360   0.14610   Biso      1.000     H          0.122964  
         H18       1.0000    0.08700   0.25880   0.43070   Biso      1.000     H          0.12912200000000001           
         H19       1.0000    0.58700   0.75880   0.43070   Biso      1.000     H          0.12912200000000001           
         H20       1.0000    0.65630   0.92360   0.35390   Biso      1.000     H          0.122964  
         H21       1.0000    0.19450   0.26420   0.83460   Biso      1.000     H          0.41537799999999997           
         H22       1.0000    0.90800   0.61440   0.07650   Biso      1.000     H          0.128801  
         H23       1.0000    0.15630   0.57640   0.85390   Biso      1.000     H          0.122965  
         H24       1.0000    0.40800   0.88560   0.57650   Biso      1.000     H          0.128801  
         H25       1.0000    0.34370   0.92360   0.14610   Biso      1.000     H          0.122964  
         H26       1.0000    0.08700   0.74120   0.93070   Biso      1.000     H          0.12912200000000001           
         H27       1.0000    0.91300   0.25880   0.06930   Biso      1.000     H          0.12912200000000001           
         H28       1.0000    0.40800   0.11440   0.07650   Biso      1.000     H          0.128801  
         H29       1.0000    0.80550   0.26420   0.66540   Biso      1.000     H          0.41537799999999997           
         H30       1.0000    0.65630   0.07640   0.85390   Biso      1.000     H          0.122964  
         H31       1.0000    0.58700   0.24120   0.93070   Biso      1.000     H          0.12912200000000001           
         H32       1.0000    0.80550   0.73580   0.16540   Biso      1.000     H          0.41537799999999997           
         O1        1.0000    0.77700   0.26631   0.23250   Biso      1.000     O          -0.582017           
         O2        1.0000    0.69600   0.35414   0.21940   Biso      1.000     O          -0.722765           
         O3        1.0000    0.15600   0.29112   0.85720   Biso      1.000     O          -0.494335           
         O4        1.0000    0.04180   0.22084   0.91110   Biso      1.000     O          -0.611863           
         O5        1.0000    0.19600   0.14586   0.71940   Biso      1.000     O          -0.722765           
         O6        1.0000    0.65600   0.79112   0.85720   Biso      1.000     O          -0.494335           
         O7        1.0000    0.27700   0.23369   0.73250   Biso      1.000     O          -0.582017           
         O8        1.0000    0.65600   0.20888   0.35720   Biso      1.000     O          -0.494335           
         O9        1.0000    0.54180   0.27916   0.41110   Biso      1.000     O          -0.611863           
         O10       1.0000    0.69600   0.64586   0.71940   Biso      1.000     O          -0.722765           
         O11       1.0000    0.77700   0.73369   0.73250   Biso      1.000     O          -0.582017           
         O12       1.0000    0.15600   0.70888   0.35720   Biso      1.000     O          -0.494335           
         O13       1.0000    0.04180   0.77916   0.41110   Biso      1.000     O          -0.611863           
         O14       1.0000    0.80400   0.14586   0.78060   Biso      1.000     O          -0.722765           
         O15       1.0000    0.72300   0.23369   0.76750   Biso      1.000     O          -0.582017           
         O16       1.0000    0.34400   0.20888   0.14280   Biso      1.000     O          -0.494335           
         O17       1.0000    0.45820   0.27916   0.08890   Biso      1.000     O          -0.611863           
         O18       1.0000    0.54180   0.72084   0.91110   Biso      1.000     O          -0.611863           
         O19       1.0000    0.30400   0.64586   0.78060   Biso      1.000     O          -0.722765           
         O20       1.0000    0.84400   0.70888   0.14280   Biso      1.000     O          -0.494335           
         O21       1.0000    0.95820   0.77916   0.08890   Biso      1.000     O          -0.611863           
         O22       1.0000    0.80400   0.85414   0.28060   Biso      1.000     O          -0.722765           
         O23       1.0000    0.34400   0.79112   0.64280   Biso      1.000     O          -0.494335           
         O24       1.0000    0.45820   0.72084   0.58890   Biso      1.000     O          -0.611863           
         O25       1.0000    0.30400   0.35414   0.28060   Biso      1.000     O          -0.722765           
         O26       1.0000    0.22300   0.26631   0.26750   Biso      1.000     O          -0.582017           
         O27       1.0000    0.84400   0.29112   0.64280   Biso      1.000     O          -0.494335           
         O28       1.0000    0.95820   0.22084   0.58890   Biso      1.000     O          -0.611863           
         O29       1.0000    0.19600   0.85414   0.21940   Biso      1.000     O          -0.722765           
         O30       1.0000    0.27700   0.76631   0.23250   Biso      1.000     O          -0.582017           
         O31       1.0000    0.22300   0.73369   0.76750   Biso      1.000     O          -0.582017           
         O32       1.0000    0.72300   0.76631   0.26750   Biso      1.000     O          -0.582017 