
##########################################################################
#               Crystallographic Information Format file
#               Produced by PyCifRW module
#
#  This is a CIF file.  CIF has been adopted by the International
#  Union of Crystallography as the standard for data archiving and
#  transmission.
#
#  For information on this file format, follow the CIF links at
#  http://www.iucr.org
##########################################################################

data_image0

_cell_length_a                          10.2325
_cell_length_b                          10.4579
_cell_length_c                          11.665
_cell_angle_alpha                       106.737
_cell_angle_beta                        108.856
_cell_angle_gamma                       104.541
_symmetry_space_group_name_H-M          'P 1'
_symmetry_int_tables_number             1
loop_
  _symmetry_equiv_pos_as_xyz
         'x, y, z' 
loop_
  _atom_site_label
  _atom_site_occupancy
  _atom_site_fract_x
  _atom_site_fract_y
  _atom_site_fract_z
  _atom_site_thermal_displace_type
  _atom_site_B_iso_or_equiv
  _atom_site_type_symbol
  _atom_site_charge
         C1        1.0000    0.41630   0.28370   0.21450   Biso      1.000     C          0.626604  
         C2        1.0000    0.46200   0.27320   0.01280   Biso      1.000     C          -0.089647           
         C3        1.0000    0.40470   0.20150   0.08000   Biso      1.000     C          -0.018253           
         C4        1.0000    0.33230   0.05270   0.02070   Biso      1.000     C          -0.174275           
         C5        1.0000    0.48720   0.26990   0.80510   Biso      1.000     C          0.574463  
         C6        1.0000    0.58370   0.71630   0.78550   Biso      1.000     C          0.626603  
         C7        1.0000    0.83420   0.75760   0.50910   Biso      1.000     C          0.6281    
         C8        1.0000    0.91670   0.67930   0.44990   Biso      1.000     C          0.00321   
         C9        1.0000    0.06410   0.75120   0.47570   Biso      1.000     C          -0.101342           
         C10       1.0000    0.14100   0.67490   0.42610   Biso      1.000     C          -0.071053           
         C11       1.0000    0.06870   0.52780   0.34760   Biso      1.000     C          -0.162705           
         C12       1.0000    0.91910   0.45630   0.31640   Biso      1.000     C          0.177644  
         C13       1.0000    0.84520   0.53370   0.37090   Biso      1.000     C          -0.115004           
         C14       1.0000    0.30320   0.74700   0.46020   Biso      1.000     C          0.621937  
         C15       1.0000    0.84140   0.30410   0.23570   Biso      1.000     C          -0.142217           
         C16       1.0000    0.76990   0.17870   0.17310   Biso      1.000     C          -0.058221           
         C17       1.0000    0.68780   0.02550   0.10700   Biso      1.000     C          0.142465  
         C18       1.0000    0.62960   0.95290   0.17320   Biso      1.000     C          -0.169262           
         C19       1.0000    0.55600   0.80390   0.11370   Biso      1.000     C          -0.008802           
         C20       1.0000    0.53800   0.72680   0.98720   Biso      1.000     C          -0.089646           
         C21       1.0000    0.59530   0.79850   0.92000   Biso      1.000     C          -0.018253           
         C22       1.0000    0.66770   0.94730   0.97930   Biso      1.000     C          -0.174275           
         C23       1.0000    0.44400   0.19610   0.88630   Biso      1.000     C          -0.0088   
         C24       1.0000    0.37040   0.04710   0.82680   Biso      1.000     C          -0.169262           
         C25       1.0000    0.51280   0.73010   0.19490   Biso      1.000     C          0.574464  
         C26       1.0000    0.93130   0.47220   0.65240   Biso      1.000     C          -0.162705           
         C27       1.0000    0.85900   0.32510   0.57390   Biso      1.000     C          -0.071053           
         C28       1.0000    0.93590   0.24880   0.52430   Biso      1.000     C          -0.101341           
         C29       1.0000    0.08330   0.32070   0.55010   Biso      1.000     C          0.00321   
         C30       1.0000    0.16580   0.24240   0.49090   Biso      1.000     C          0.6281    
         C31       1.0000    0.31220   0.97450   0.89300   Biso      1.000     C          0.142465  
         C32       1.0000    0.15480   0.46630   0.62910   Biso      1.000     C          -0.115005           
         C33       1.0000    0.08090   0.54370   0.68360   Biso      1.000     C          0.177645  
         C34       1.0000    0.69680   0.25300   0.53980   Biso      1.000     C          0.621938  
         C35       1.0000    0.15860   0.69590   0.76430   Biso      1.000     C          -0.142217           
         C36       1.0000    0.23010   0.82130   0.82690   Biso      1.000     C          -0.058221           
         H1        1.0000    0.74650   0.48630   0.35360   Biso      1.000     H          0.129404  
         H2        1.0000    0.64180   0.35690   0.64100   Biso      1.000     H          0.42635   
         H3        1.0000    0.48770   0.62710   0.94730   Biso      1.000     H          0.138972  
         H4        1.0000    0.12060   0.47650   0.31570   Biso      1.000     H          0.125742  
         H5        1.0000    0.88880   0.14990   0.47400   Biso      1.000     H          0.132703  
         H6        1.0000    0.11120   0.85010   0.52600   Biso      1.000     H          0.132703  
         H7        1.0000    0.64010   0.00420   0.25750   Biso      1.000     H          0.112855  
         H8        1.0000    0.87940   0.52350   0.68430   Biso      1.000     H          0.125742  
         H9        1.0000    0.35990   0.99580   0.74250   Biso      1.000     H          0.112855  
         H10       1.0000    0.51230   0.37290   0.05270   Biso      1.000     H          0.138972  
         H11       1.0000    0.35820   0.64310   0.35900   Biso      1.000     H          0.42635   
         H12       1.0000    0.25350   0.51370   0.64640   Biso      1.000     H          0.129404  
         H13       1.0000    0.29660   0.00430   0.06650   Biso      1.000     H          0.113592  
         H14       1.0000    0.70340   0.99570   0.93350   Biso      1.000     H          0.113591  
         O1        1.0000    0.60050   0.78340   0.71610   Biso      1.000     O          -0.729767           
         O2        1.0000    0.28280   0.31830   0.48940   Biso      1.000     O          -0.717033           
         O3        1.0000    0.11900   0.10840   0.44790   Biso      1.000     O          -0.594378           
         O4        1.0000    0.62270   0.33100   0.54950   Biso      1.000     O          -0.55262  
         O5        1.0000    0.64030   0.11720   0.50040   Biso      1.000     O          -0.605927           
         O6        1.0000    0.55920   0.41110   0.87040   Biso      1.000     O          -0.552094           
         O7        1.0000    0.39950   0.21660   0.28390   Biso      1.000     O          -0.729767           
         O8        1.0000    0.55900   0.58420   0.74800   Biso      1.000     O          -0.605926           
         O9        1.0000    0.44100   0.41580   0.25200   Biso      1.000     O          -0.605926           
         O10       1.0000    0.71720   0.68170   0.51060   Biso      1.000     O          -0.717033           
         O11       1.0000    0.88100   0.89160   0.55210   Biso      1.000     O          -0.594378           
         O12       1.0000    0.37730   0.66900   0.45050   Biso      1.000     O          -0.55262  
         O13       1.0000    0.35970   0.88280   0.49960   Biso      1.000     O          -0.605927           
         O14       1.0000    0.44080   0.58890   0.12960   Biso      1.000     O          -0.552092           
         O15       1.0000    0.54360   0.79270   0.30990   Biso      1.000     O          -0.679153           
         O16       1.0000    0.45640   0.20730   0.69010   Biso      1.000     O          -0.679152           
         Sr1       1.0000    0.36042   0.09467   0.43399   Biso      1.000     Sr          1.471183  
         Sr2       1.0000    0.63958   0.90533   0.56601   Biso      1.000     Sr          1.471184  
         Sr3       1.0000    0.50000   0.50000   0.50000   Biso      1.000     Sr          1.4449 