
##########################################################################
#               Crystallographic Information Format file
#               Produced by PyCifRW module
#
#  This is a CIF file.  CIF has been adopted by the International
#  Union of Crystallography as the standard for data archiving and
#  transmission.
#
#  For information on this file format, follow the CIF links at
#  http://www.iucr.org
##########################################################################

data_image0

_cell_length_a                          7.7911
_cell_length_b                          9.2984
_cell_length_c                          10.6284
_cell_angle_alpha                       65.32
_cell_angle_beta                        86.199
_cell_angle_gamma                       78.145
_symmetry_space_group_name_H-M          'P 1'
_symmetry_int_tables_number             1
loop_
  _symmetry_equiv_pos_as_xyz
         'x, y, z' 
loop_
  _atom_site_label
  _atom_site_occupancy
  _atom_site_fract_x
  _atom_site_fract_y
  _atom_site_fract_z
  _atom_site_thermal_displace_type
  _atom_site_B_iso_or_equiv
  _atom_site_type_symbol
  _atom_site_charge
         C1        1.0000    0.17500   0.35030   0.13320   Biso      1.000     C          -0.179405           
         C2        1.0000    0.26030   0.33230   0.24900   Biso      1.000     C          0.098541  
         C3        1.0000    0.04500   0.48510   0.06490   Biso      1.000     C          0.124847  
         C4        1.0000    0.97410   0.55940   0.14780   Biso      1.000     C          -0.206823           
         C5        1.0000    0.06220   0.53140   0.26630   Biso      1.000     C          0.135605  
         C6        1.0000    0.87480   0.13560   0.48880   Biso      1.000     C          -0.028881999999999998         
         C7        1.0000    0.56170   0.73280   0.27090   Biso      1.000     C          0.5848909999999999  
         C8        1.0000    0.53240   0.87080   0.12960   Biso      1.000     C          -0.028698           
         C9        1.0000    0.62420   0.99500   0.09010   Biso      1.000     C          -0.11150299999999999          
         C10       1.0000    0.83250   0.02230   0.44690   Biso      1.000     C          -0.11106600000000001          
         C11       1.0000    0.40830   0.87630   0.03870   Biso      1.000     C          -0.11852  
         C12       1.0000    0.95770   0.88760   0.45720   Biso      1.000     C          -0.113408           
         C13       1.0000    0.16750   0.97770   0.55310   Biso      1.000     C          -0.11106400000000001          
         C14       1.0000    0.73970   0.66770   0.75100   Biso      1.000     C          0.098535  
         C15       1.0000    0.82500   0.64970   0.86680   Biso      1.000     C          -0.1794   
         C16       1.0000    0.95500   0.51490   0.93510   Biso      1.000     C          0.12484400000000001           
         C17       1.0000    0.02590   0.44060   0.85220   Biso      1.000     C          -0.20682199999999998          
         C18       1.0000    0.93780   0.46860   0.73370   Biso      1.000     C          0.135605  
         C19       1.0000    0.12520   0.86440   0.51120   Biso      1.000     C          -0.028886000000000002         
         C20       1.0000    0.26020   0.72030   0.52060   Biso      1.000     C          0.586541  
         C21       1.0000    0.73980   0.27970   0.47940   Biso      1.000     C          0.58654   
         C22       1.0000    0.04230   0.11240   0.54280   Biso      1.000     C          -0.11341  
         C23       1.0000    0.37580   0.00500   0.90990   Biso      1.000     C          -0.111502           
         C24       1.0000    0.46760   0.12920   0.87040   Biso      1.000     C          -0.028696           
         C25       1.0000    0.43830   0.26720   0.72910   Biso      1.000     C          0.584892  
         C26       1.0000    0.59170   0.12370   0.96130   Biso      1.000     C          -0.11851500000000001          
         H1        1.0000    0.07020   0.18850   0.57220   Biso      1.000     H          0.11704300000000001           
         H2        1.0000    0.71820   0.03770   0.41140   Biso      1.000     H          0.118175  
         H3        1.0000    0.35480   0.24350   0.28840   Biso      1.000     H          0.10153999999999999           
         H4        1.0000    0.20480   0.26920   0.09890   Biso      1.000     H          0.126937  
         H5        1.0000    0.29900   0.00400   0.84200   Biso      1.000     H          0.115631  
         H6        1.0000    0.01600   0.59200   0.32200   Biso      1.000     H          0.094941  
         H7        1.0000    0.65300   0.20700   0.92800   Biso      1.000     H          0.11860899999999999           
         H8        1.0000    0.87700   0.62100   0.12500   Biso      1.000     H          0.138183  
         H9        1.0000    0.92980   0.81150   0.42780   Biso      1.000     H          0.11704300000000001           
         H10       1.0000    0.64520   0.75650   0.71160   Biso      1.000     H          0.10154099999999999           
         H11       1.0000    0.79520   0.73080   0.90110   Biso      1.000     H          0.126937  
         H12       1.0000    0.70100   0.99600   0.15800   Biso      1.000     H          0.115631  
         H13       1.0000    0.98400   0.40800   0.67800   Biso      1.000     H          0.094942  
         H14       1.0000    0.34700   0.79300   0.07200   Biso      1.000     H          0.11860899999999999           
         H15       1.0000    0.12300   0.37900   0.87500   Biso      1.000     H          0.138183  
         H16       1.0000    0.28180   0.96230   0.58860   Biso      1.000     H          0.118175  
         N1        1.0000    0.21550   0.43420   0.30710   Biso      1.000     N          -0.202726           
         N2        1.0000    0.78450   0.56580   0.69290   Biso      1.000     N          -0.202725           
         O1        1.0000    0.67240   0.73310   0.35130   Biso      1.000     O          -0.539673           
         O2        1.0000    0.78970   0.38380   0.50900   Biso      1.000     O          -0.546408           
         O3        1.0000    0.47170   0.62660   0.29920   Biso      1.000     O          -0.5807770000000001           
         O4        1.0000    0.58420   0.28420   0.44600   Biso      1.000     O          -0.551847           
         O5        1.0000    0.21030   0.61620   0.49100   Biso      1.000     O          -0.546408           
         O6        1.0000    0.32760   0.26690   0.64870   Biso      1.000     O          -0.539673           
         O7        1.0000    0.41580   0.71580   0.55400   Biso      1.000     O          -0.551847           
         O8        1.0000    0.52830   0.37340   0.70080   Biso      1.000     O          -0.5807770000000001           
         Zn1       1.0000    0.63512   0.56325   0.54411   Biso      1.000     Zn          0.8582489999999999  
         Zn2       1.0000    0.36488   0.43675   0.45589   Biso      1.000     Zn          0.858248 