
##########################################################################
#               Crystallographic Information Format file
#               Produced by PyCifRW module
#
#  This is a CIF file.  CIF has been adopted by the International
#  Union of Crystallography as the standard for data archiving and
#  transmission.
#
#  For information on this file format, follow the CIF links at
#  http://www.iucr.org
##########################################################################

data_image0

_cell_length_a                          12.181
_cell_length_b                          15.354
_cell_length_c                          18.785
_cell_angle_alpha                       90
_cell_angle_beta                        90
_cell_angle_gamma                       90
_symmetry_space_group_name_H-M          'P 1'
_symmetry_int_tables_number             1
loop_
  _symmetry_equiv_pos_as_xyz
         'x, y, z' 
loop_
  _atom_site_label
  _atom_site_occupancy
  _atom_site_fract_x
  _atom_site_fract_y
  _atom_site_fract_z
  _atom_site_thermal_displace_type
  _atom_site_B_iso_or_equiv
  _atom_site_type_symbol
  _atom_site_charge
         C1        1.0000    0.58320   0.99870   0.70520   Biso      1.000     C          -0.141508           
         C2        1.0000    0.03440   0.84640   0.72960   Biso      1.000     C          0.082196  
         C3        1.0000    0.63380   0.24760   0.59630   Biso      1.000     C          0.552143  
         C4        1.0000    0.39700   0.21560   0.47040   Biso      1.000     C          0.077773  
         C5        1.0000    0.46560   0.20380   0.52730   Biso      1.000     C          -0.155973           
         C6        1.0000    0.55030   0.26240   0.53920   Biso      1.000     C          0.039992  
         C7        1.0000    0.55880   0.33090   0.49310   Biso      1.000     C          -0.164587           
         C8        1.0000    0.48850   0.33740   0.43610   Biso      1.000     C          0.090357  
         C9        1.0000    0.56460   0.92180   0.22720   Biso      1.000     C          0.547421  
         C10       1.0000    0.36250   0.07750   0.30950   Biso      1.000     C          0.084272  
         C11       1.0000    0.41680   0.00130   0.29480   Biso      1.000     C          -0.141502           
         C12       1.0000    0.50090   0.00300   0.24570   Biso      1.000     C          0.035553  
         C13       1.0000    0.52460   0.07970   0.21180   Biso      1.000     C          -0.162158           
         C14       1.0000    0.46560   0.15360   0.22960   Biso      1.000     C          0.082197  
         C15       1.0000    0.13380   0.25240   0.40370   Biso      1.000     C          0.552143  
         C16       1.0000    0.89700   0.28440   0.52960   Biso      1.000     C          0.077773  
         C17       1.0000    0.96560   0.29620   0.47270   Biso      1.000     C          -0.155973           
         C18       1.0000    0.05030   0.23760   0.46080   Biso      1.000     C          0.039992  
         C19       1.0000    0.05880   0.16910   0.50690   Biso      1.000     C          -0.164587           
         C20       1.0000    0.98850   0.16260   0.56390   Biso      1.000     C          0.090357  
         C21       1.0000    0.06460   0.57820   0.77280   Biso      1.000     C          0.547421  
         C22       1.0000    0.86250   0.42250   0.69050   Biso      1.000     C          0.084272  
         C23       1.0000    0.97540   0.92030   0.71180   Biso      1.000     C          -0.16216  
         C24       1.0000    0.91680   0.49870   0.70520   Biso      1.000     C          -0.141502           
         C25       1.0000    0.99910   0.99700   0.74570   Biso      1.000     C          0.035556  
         C26       1.0000    0.13750   0.92250   0.80950   Biso      1.000     C          0.084273  
         C27       1.0000    0.00090   0.00300   0.25430   Biso      1.000     C          0.035553  
         C28       1.0000    0.91680   0.00130   0.20520   Biso      1.000     C          -0.141508           
         C29       1.0000    0.86250   0.07750   0.19050   Biso      1.000     C          0.084279  
         C30       1.0000    0.06460   0.92180   0.27280   Biso      1.000     C          0.547421  
         C31       1.0000    0.98850   0.33740   0.06390   Biso      1.000     C          0.090356  
         C32       1.0000    0.05880   0.33090   0.00690   Biso      1.000     C          -0.16459  
         C33       1.0000    0.05030   0.26240   0.96080   Biso      1.000     C          0.039997  
         C34       1.0000    0.96560   0.20380   0.97270   Biso      1.000     C          -0.155978           
         C35       1.0000    0.89700   0.21560   0.02960   Biso      1.000     C          0.077777  
         C36       1.0000    0.13380   0.24760   0.90370   Biso      1.000     C          0.552142  
         C37       1.0000    0.36620   0.75240   0.40370   Biso      1.000     C          0.552143  
         C38       1.0000    0.60300   0.78440   0.52960   Biso      1.000     C          0.077773  
         C39       1.0000    0.49910   0.99700   0.75430   Biso      1.000     C          0.035553  
         C40       1.0000    0.53440   0.79620   0.47270   Biso      1.000     C          -0.155972           
         C41       1.0000    0.86620   0.75240   0.09630   Biso      1.000     C          0.552143  
         C42       1.0000    0.10300   0.78440   0.97040   Biso      1.000     C          0.077773  
         C43       1.0000    0.03440   0.79620   0.02730   Biso      1.000     C          -0.155973           
         C44       1.0000    0.94970   0.73760   0.03920   Biso      1.000     C          0.039992  
         C45       1.0000    0.94120   0.66910   0.99310   Biso      1.000     C          -0.164587           
         C46       1.0000    0.01150   0.66260   0.93610   Biso      1.000     C          0.090357  
         C47       1.0000    0.93540   0.07820   0.72720   Biso      1.000     C          0.547421  
         C48       1.0000    0.08320   0.99870   0.79480   Biso      1.000     C          -0.141502           
         C49       1.0000    0.00090   0.49700   0.75430   Biso      1.000     C          0.035553  
         C50       1.0000    0.02460   0.42030   0.78820   Biso      1.000     C          -0.162158           
         C51       1.0000    0.96560   0.34640   0.77040   Biso      1.000     C          0.082197  
         C52       1.0000    0.56460   0.57820   0.72720   Biso      1.000     C          0.547421  
         C53       1.0000    0.48850   0.16260   0.93610   Biso      1.000     C          0.090356  
         C54       1.0000    0.55880   0.16910   0.99310   Biso      1.000     C          -0.16459  
         C55       1.0000    0.55030   0.23760   0.03920   Biso      1.000     C          0.039997  
         C56       1.0000    0.46560   0.29620   0.02730   Biso      1.000     C          -0.155978           
         C57       1.0000    0.39700   0.28440   0.97040   Biso      1.000     C          0.077777  
         C58       1.0000    0.63380   0.25240   0.09630   Biso      1.000     C          0.552142  
         C59       1.0000    0.03440   0.65360   0.22960   Biso      1.000     C          0.082196  
         C60       1.0000    0.97540   0.57970   0.21180   Biso      1.000     C          -0.16216  
         C61       1.0000    0.99910   0.50300   0.24570   Biso      1.000     C          0.035557  
         C62       1.0000    0.08320   0.50130   0.29480   Biso      1.000     C          -0.141508           
         C63       1.0000    0.13750   0.57750   0.30950   Biso      1.000     C          0.084279  
         C64       1.0000    0.93540   0.42180   0.22720   Biso      1.000     C          0.547421  
         C65       1.0000    0.01150   0.83740   0.43610   Biso      1.000     C          0.090356  
         C66       1.0000    0.94120   0.83090   0.49310   Biso      1.000     C          -0.16459  
         C67       1.0000    0.94970   0.76240   0.53920   Biso      1.000     C          0.039997  
         C68       1.0000    0.03440   0.70380   0.52730   Biso      1.000     C          -0.155978           
         C69       1.0000    0.10300   0.71560   0.47040   Biso      1.000     C          0.077777  
         C70       1.0000    0.86620   0.74760   0.59630   Biso      1.000     C          0.552142  
         C71       1.0000    0.53440   0.84640   0.77040   Biso      1.000     C          0.082195  
         C72       1.0000    0.47540   0.92030   0.78820   Biso      1.000     C          -0.162156           
         C73       1.0000    0.36250   0.42250   0.80950   Biso      1.000     C          0.084272  
         C74       1.0000    0.41680   0.49870   0.79480   Biso      1.000     C          -0.141502           
         C75       1.0000    0.50090   0.49700   0.74570   Biso      1.000     C          0.035553  
         C76       1.0000    0.52460   0.42030   0.71180   Biso      1.000     C          -0.162158           
         C77       1.0000    0.36620   0.74760   0.90370   Biso      1.000     C          0.552143  
         C78       1.0000    0.60300   0.71560   0.02960   Biso      1.000     C          0.077773  
         C79       1.0000    0.53440   0.70380   0.97270   Biso      1.000     C          -0.155972           
         C80       1.0000    0.44970   0.76240   0.96080   Biso      1.000     C          0.039992  
         C81       1.0000    0.44120   0.83090   0.00690   Biso      1.000     C          -0.164587           
         C82       1.0000    0.51150   0.83740   0.06390   Biso      1.000     C          0.090357  
         C83       1.0000    0.43540   0.42180   0.27280   Biso      1.000     C          0.547421  
         C84       1.0000    0.63750   0.57750   0.19050   Biso      1.000     C          0.084272  
         C85       1.0000    0.58320   0.50130   0.20520   Biso      1.000     C          -0.141502           
         C86       1.0000    0.49910   0.50300   0.25430   Biso      1.000     C          0.035553  
         C87       1.0000    0.02460   0.07970   0.28820   Biso      1.000     C          -0.162158           
         C88       1.0000    0.47540   0.57970   0.28820   Biso      1.000     C          -0.162158           
         C89       1.0000    0.44970   0.73760   0.46080   Biso      1.000     C          0.039992  
         C90       1.0000    0.44120   0.66910   0.50690   Biso      1.000     C          -0.164587           
         C91       1.0000    0.51150   0.66260   0.56390   Biso      1.000     C          0.090357  
         C92       1.0000    0.43540   0.07820   0.77280   Biso      1.000     C          0.547421  
         C93       1.0000    0.63750   0.92250   0.69050   Biso      1.000     C          0.084279  
         C94       1.0000    0.46560   0.34640   0.72960   Biso      1.000     C          0.082197  
         C95       1.0000    0.53440   0.65360   0.27040   Biso      1.000     C          0.082197  
         C96       1.0000    0.96560   0.15360   0.27040   Biso      1.000     C          0.082197  
         Cd1       1.0000    0.30698   0.21586   0.81597   Biso      1.000     Cd          0.821503  
         Cd2       1.0000    0.19302   0.78414   0.31597   Biso      1.000     Cd          0.821503  
         Cd3       1.0000    0.69302   0.71586   0.68403   Biso      1.000     Cd          0.821503  
         Cd4       1.0000    0.80698   0.28414   0.18403   Biso      1.000     Cd          0.821503  
         Cd5       1.0000    0.69302   0.78414   0.18403   Biso      1.000     Cd          0.821503  
         Cd6       1.0000    0.19302   0.71586   0.81597   Biso      1.000     Cd          0.821503  
         Cd7       1.0000    0.30698   0.28414   0.31597   Biso      1.000     Cd          0.821503  
         Cd8       1.0000    0.80698   0.21586   0.68403   Biso      1.000     Cd          0.821503  
         H1        1.0000    0.07940   0.08210   0.32270   Biso      1.000     H          0.13145   
         H2        1.0000    0.89730   0.94970   0.18260   Biso      1.000     H          0.142077  
         H3        1.0000    0.80610   0.07630   0.15720   Biso      1.000     H          0.104268  
         H4        1.0000    0.99670   0.38390   0.09510   Biso      1.000     H          0.092146  
         H5        1.0000    0.11230   0.37320   0.99970   Biso      1.000     H          0.131685  
         H6        1.0000    0.95550   0.15670   0.94220   Biso      1.000     H          0.135307  
         H7        1.0000    0.48230   0.20550   0.20640   Biso      1.000     H          0.09461   
         H8        1.0000    0.45550   0.15670   0.55780   Biso      1.000     H          0.135307  
         H9        1.0000    0.61230   0.37320   0.50030   Biso      1.000     H          0.131685  
         H10       1.0000    0.49670   0.38390   0.40490   Biso      1.000     H          0.092146  
         H11       1.0000    0.30610   0.07630   0.34280   Biso      1.000     H          0.104268  
         H12       1.0000    0.39730   0.94970   0.31740   Biso      1.000     H          0.142077  
         H13       1.0000    0.57940   0.08210   0.17730   Biso      1.000     H          0.13145   
         H14       1.0000    0.83910   0.17690   0.03600   Biso      1.000     H          0.093457  
         H15       1.0000    0.83910   0.32310   0.53600   Biso      1.000     H          0.093457  
         H16       1.0000    0.11230   0.12680   0.49970   Biso      1.000     H          0.131685  
         H17       1.0000    0.99670   0.11610   0.59510   Biso      1.000     H          0.092146  
         H18       1.0000    0.80610   0.42370   0.65720   Biso      1.000     H          0.104268  
         H19       1.0000    0.89730   0.55030   0.68260   Biso      1.000     H          0.142077  
         H20       1.0000    0.07940   0.41790   0.82270   Biso      1.000     H          0.13145   
         H21       1.0000    0.98230   0.29450   0.79360   Biso      1.000     H          0.09461   
         H22       1.0000    0.66090   0.67690   0.03600   Biso      1.000     H          0.093457  
         H23       1.0000    0.54450   0.65670   0.94220   Biso      1.000     H          0.135306  
         H24       1.0000    0.38770   0.87320   0.99970   Biso      1.000     H          0.131685  
         H25       1.0000    0.50330   0.88390   0.09510   Biso      1.000     H          0.092146  
         H26       1.0000    0.69390   0.57630   0.15720   Biso      1.000     H          0.104268  
         H27       1.0000    0.60270   0.44970   0.18260   Biso      1.000     H          0.142077  
         H28       1.0000    0.42060   0.58210   0.32270   Biso      1.000     H          0.13145   
         H29       1.0000    0.95550   0.34330   0.44220   Biso      1.000     H          0.135306  
         H30       1.0000    0.66090   0.82310   0.53600   Biso      1.000     H          0.093457  
         H31       1.0000    0.98230   0.20550   0.29360   Biso      1.000     H          0.09461   
         H32       1.0000    0.38770   0.62680   0.49970   Biso      1.000     H          0.131685  
         H33       1.0000    0.16090   0.82310   0.96400   Biso      1.000     H          0.093457  
         H34       1.0000    0.04450   0.84330   0.05780   Biso      1.000     H          0.135306  
         H35       1.0000    0.88770   0.62680   0.00030   Biso      1.000     H          0.131684  
         H36       1.0000    0.00330   0.61610   0.90490   Biso      1.000     H          0.092146  
         H37       1.0000    0.19390   0.92370   0.84280   Biso      1.000     H          0.104268  
         H38       1.0000    0.10270   0.05030   0.81740   Biso      1.000     H          0.142077  
         H39       1.0000    0.92060   0.91790   0.67730   Biso      1.000     H          0.131451  
         H40       1.0000    0.01770   0.79450   0.70640   Biso      1.000     H          0.09461   
         H41       1.0000    0.33910   0.17690   0.46400   Biso      1.000     H          0.093457  
         H42       1.0000    0.48230   0.29450   0.70640   Biso      1.000     H          0.09461   
         H43       1.0000    0.57940   0.41790   0.67730   Biso      1.000     H          0.13145   
         H44       1.0000    0.39730   0.55030   0.81740   Biso      1.000     H          0.142077  
         H45       1.0000    0.30610   0.42370   0.84280   Biso      1.000     H          0.104268  
         H46       1.0000    0.49670   0.11610   0.90490   Biso      1.000     H          0.092146  
         H47       1.0000    0.51770   0.70550   0.29360   Biso      1.000     H          0.09461   
         H48       1.0000    0.61230   0.12680   0.00030   Biso      1.000     H          0.131685  
         H49       1.0000    0.33910   0.32310   0.96400   Biso      1.000     H          0.093457  
         H50       1.0000    0.01770   0.70550   0.20640   Biso      1.000     H          0.09461   
         H51       1.0000    0.92060   0.58210   0.17730   Biso      1.000     H          0.131451  
         H52       1.0000    0.10270   0.44970   0.31740   Biso      1.000     H          0.142077  
         H53       1.0000    0.19390   0.57630   0.34280   Biso      1.000     H          0.104268  
         H54       1.0000    0.00330   0.88390   0.40490   Biso      1.000     H          0.092146  
         H55       1.0000    0.88770   0.87320   0.50030   Biso      1.000     H          0.131685  
         H56       1.0000    0.04450   0.65670   0.55780   Biso      1.000     H          0.135307  
         H57       1.0000    0.16090   0.67690   0.46400   Biso      1.000     H          0.093457  
         H58       1.0000    0.51770   0.79450   0.79360   Biso      1.000     H          0.09461   
         H59       1.0000    0.42060   0.91790   0.82270   Biso      1.000     H          0.13145   
         H60       1.0000    0.60270   0.05030   0.68260   Biso      1.000     H          0.142077  
         H61       1.0000    0.69390   0.92370   0.65720   Biso      1.000     H          0.104268  
         H62       1.0000    0.50330   0.61610   0.59510   Biso      1.000     H          0.092146  
         H63       1.0000    0.45550   0.34330   0.05780   Biso      1.000     H          0.135307  
         H64       1.0000    0.54450   0.84330   0.44220   Biso      1.000     H          0.135306  
         N1        1.0000    0.40940   0.22000   0.92400   Biso      1.000     N          -0.21987  
         N2        1.0000    0.09060   0.78000   0.42400   Biso      1.000     N          -0.21987  
         N3        1.0000    0.38660   0.34590   0.77810   Biso      1.000     N          -0.231412           
         N4        1.0000    0.11340   0.65410   0.27810   Biso      1.000     N          -0.231413           
         N5        1.0000    0.59060   0.72000   0.57600   Biso      1.000     N          -0.21987  
         N6        1.0000    0.90940   0.28000   0.07600   Biso      1.000     N          -0.21987  
         N7        1.0000    0.61340   0.65410   0.22190   Biso      1.000     N          -0.231412           
         N8        1.0000    0.59060   0.78000   0.07600   Biso      1.000     N          -0.21987  
         N9        1.0000    0.88660   0.34590   0.72190   Biso      1.000     N          -0.231412           
         N10       1.0000    0.90940   0.22000   0.57600   Biso      1.000     N          -0.21987  
         N11       1.0000    0.38660   0.15410   0.27810   Biso      1.000     N          -0.231412           
         N12       1.0000    0.40940   0.28000   0.42400   Biso      1.000     N          -0.21987  
         N13       1.0000    0.11340   0.84590   0.77810   Biso      1.000     N          -0.231412           
         N14       1.0000    0.61340   0.84590   0.72190   Biso      1.000     N          -0.231413           
         N15       1.0000    0.09060   0.72000   0.92400   Biso      1.000     N          -0.21987  
         N16       1.0000    0.88660   0.15410   0.22190   Biso      1.000     N          -0.231413           
         O1        1.0000    0.15420   0.93170   0.30530   Biso      1.000     O          -0.535158           
         O2        1.0000    0.02640   0.84890   0.25740   Biso      1.000     O          -0.562201           
         O3        1.0000    0.31200   0.68860   0.38330   Biso      1.000     O          -0.552378           
         O4        1.0000    0.34580   0.06830   0.80530   Biso      1.000     O          -0.535158           
         O5        1.0000    0.47360   0.15110   0.75740   Biso      1.000     O          -0.562201           
         O6        1.0000    0.85040   0.67120   0.61740   Biso      1.000     O          -0.530972           
         O7        1.0000    0.84580   0.43170   0.19470   Biso      1.000     O          -0.535158           
         O8        1.0000    0.97360   0.34890   0.24260   Biso      1.000     O          -0.562201           
         O9        1.0000    0.68800   0.18860   0.11670   Biso      1.000     O          -0.552378           
         O10       1.0000    0.64960   0.32880   0.11740   Biso      1.000     O          -0.530972           
         O11       1.0000    0.65420   0.56830   0.69470   Biso      1.000     O          -0.535158           
         O12       1.0000    0.52640   0.65110   0.74260   Biso      1.000     O          -0.562201           
         O13       1.0000    0.35040   0.82880   0.38260   Biso      1.000     O          -0.530972           
         O14       1.0000    0.81200   0.81140   0.61670   Biso      1.000     O          -0.552378           
         O15       1.0000    0.81200   0.68860   0.11670   Biso      1.000     O          -0.552378           
         O16       1.0000    0.85040   0.82880   0.11740   Biso      1.000     O          -0.530972           
         O17       1.0000    0.47360   0.34890   0.25740   Biso      1.000     O          -0.562201           
         O18       1.0000    0.34580   0.43170   0.30530   Biso      1.000     O          -0.535158           
         O19       1.0000    0.35040   0.67120   0.88260   Biso      1.000     O          -0.530972           
         O20       1.0000    0.31200   0.81140   0.88330   Biso      1.000     O          -0.552378           
         O21       1.0000    0.02640   0.65110   0.75740   Biso      1.000     O          -0.562201           
         O22       1.0000    0.15420   0.56830   0.80530   Biso      1.000     O          -0.535158           
         O23       1.0000    0.14960   0.17120   0.88260   Biso      1.000     O          -0.530972           
         O24       1.0000    0.14960   0.32880   0.38260   Biso      1.000     O          -0.530972           
         O25       1.0000    0.52640   0.84890   0.24260   Biso      1.000     O          -0.562201           
         O26       1.0000    0.65420   0.93170   0.19470   Biso      1.000     O          -0.535158           
         O27       1.0000    0.64960   0.17120   0.61740   Biso      1.000     O          -0.530972           
         O28       1.0000    0.68800   0.31140   0.61670   Biso      1.000     O          -0.552378           
         O29       1.0000    0.97360   0.15110   0.74260   Biso      1.000     O          -0.562201           
         O30       1.0000    0.84580   0.06830   0.69470   Biso      1.000     O          -0.535158           
         O31       1.0000    0.18800   0.18860   0.38330   Biso      1.000     O          -0.552378           
         O32       1.0000    0.18800   0.31140   0.88330   Biso      1.000     O          -0.552378 