
##########################################################################
#               Crystallographic Information Format file
#               Produced by PyCifRW module
#
#  This is a CIF file.  CIF has been adopted by the International
#  Union of Crystallography as the standard for data archiving and
#  transmission.
#
#  For information on this file format, follow the CIF links at
#  http://www.iucr.org
##########################################################################

data_image0

_cell_length_a                          12.389
_cell_length_b                          13.259
_cell_length_c                          14.146
_cell_angle_alpha                       90
_cell_angle_beta                        90
_cell_angle_gamma                       112.676
_symmetry_space_group_name_H-M          'P 1'
_symmetry_int_tables_number             1
loop_
  _symmetry_equiv_pos_as_xyz
         'x, y, z' 
loop_
  _atom_site_label
  _atom_site_occupancy
  _atom_site_fract_x
  _atom_site_fract_y
  _atom_site_fract_z
  _atom_site_thermal_displace_type
  _atom_site_B_iso_or_equiv
  _atom_site_type_symbol
  _atom_site_charge
         C1        1.0000    0.58010   0.19480   0.12944   Biso      1.000     C          0.580954  
         C2        1.0000    0.30420   0.15740   0.27980   Biso      1.000     C          0.081758  
         C3        1.0000    0.26190   0.20620   0.34760   Biso      1.000     C          -0.159118           
         C4        1.0000    0.18820   0.25770   0.32080   Biso      1.000     C          0.037874  
         C5        1.0000    0.16130   0.25690   0.22660   Biso      1.000     C          -0.149359           
         C6        1.0000    0.20740   0.20460   0.16370   Biso      1.000     C          0.081728  
         C7        1.0000    0.74340   0.26300   0.36250   Biso      1.000     C          0.089975  
         C8        1.0000    0.65540   0.21450   0.29750   Biso      1.000     C          -0.164679           
         C9        1.0000    0.67440   0.24660   0.20360   Biso      1.000     C          0.04738   
         C10       1.0000    0.77920   0.32660   0.17960   Biso      1.000     C          -0.157854           
         C11       1.0000    0.13830   0.31030   0.39390   Biso      1.000     C          0.594496  
         C12       1.0000    0.86180   0.37010   0.24740   Biso      1.000     C          0.066873  
         C13       1.0000    0.19580   0.34260   0.77980   Biso      1.000     C          0.082708  
         C14       1.0000    0.23810   0.29380   0.84760   Biso      1.000     C          -0.15740099999999999          
         C15       1.0000    0.31180   0.24230   0.82080   Biso      1.000     C          0.041684  
         C16       1.0000    0.63820   0.12990   0.74740   Biso      1.000     C          0.068011  
         C17       1.0000    0.72080   0.17340   0.67960   Biso      1.000     C          -0.155819           
         C18       1.0000    0.82560   0.25340   0.70360   Biso      1.000     C          0.04825   
         C19       1.0000    0.84460   0.28550   0.79750   Biso      1.000     C          -0.163603           
         C20       1.0000    0.75660   0.23700   0.86250   Biso      1.000     C          0.092597  
         C21       1.0000    0.91990   0.30520   0.62944   Biso      1.000     C          0.5811729999999999  
         C22       1.0000    0.36170   0.18970   0.89390   Biso      1.000     C          0.591026  
         C23       1.0000    0.36180   0.87010   0.25260   Biso      1.000     C          0.069445  
         C24       1.0000    0.27920   0.82660   0.32040   Biso      1.000     C          -0.156333           
         C25       1.0000    0.17440   0.74660   0.29640   Biso      1.000     C          0.047476  
         C26       1.0000    0.86170   0.68970   0.60610   Biso      1.000     C          0.593873  
         C27       1.0000    0.69580   0.84260   0.72020   Biso      1.000     C          0.082567  
         C28       1.0000    0.73810   0.79380   0.65240   Biso      1.000     C          -0.1578   
         C29       1.0000    0.81180   0.74230   0.67920   Biso      1.000     C          0.040309  
         C30       1.0000    0.83870   0.74310   0.77340   Biso      1.000     C          -0.147974           
         C31       1.0000    0.79260   0.79540   0.83630   Biso      1.000     C          0.08390299999999999           
         C32       1.0000    0.41990   0.80520   0.87056   Biso      1.000     C          0.582412  
         C33       1.0000    0.25660   0.73700   0.63750   Biso      1.000     C          0.09134500000000001           
         C34       1.0000    0.34460   0.78550   0.70250   Biso      1.000     C          -0.16434  
         C35       1.0000    0.32560   0.75340   0.79640   Biso      1.000     C          0.048007999999999995          
         C36       1.0000    0.22080   0.67340   0.82040   Biso      1.000     C          -0.156256           
         C37       1.0000    0.13820   0.62990   0.75260   Biso      1.000     C          0.06755599999999999           
         C38       1.0000    0.63830   0.81030   0.10610   Biso      1.000     C          0.593638  
         C39       1.0000    0.80420   0.65740   0.22020   Biso      1.000     C          0.083768  
         C40       1.0000    0.76190   0.70620   0.15240   Biso      1.000     C          -0.156904           
         C41       1.0000    0.68820   0.75770   0.17920   Biso      1.000     C          0.040484  
         C42       1.0000    0.66130   0.75690   0.27340   Biso      1.000     C          -0.148067           
         C43       1.0000    0.70740   0.70460   0.33630   Biso      1.000     C          0.084194  
         C44       1.0000    0.08010   0.69480   0.37056   Biso      1.000     C          0.581792  
         C45       1.0000    0.24340   0.76300   0.13750   Biso      1.000     C          0.091908  
         C46       1.0000    0.15540   0.71450   0.20250   Biso      1.000     C          -0.164023           
         C47       1.0000    0.29260   0.29540   0.66370   Biso      1.000     C          0.084384  
         C48       1.0000    0.33870   0.24310   0.72660   Biso      1.000     C          -0.148777           
         Cu1       1.0000    0.16466   0.42159   0.59262   Biso      1.000     Cu          0.7061689999999999  
         Cu2       1.0000    0.66466   0.92159   0.90738   Biso      1.000     Cu          0.698006  
         Cu3       1.0000    0.52629   0.09291   0.93184   Biso      1.000     Cu          0.906108  
         Cu4       1.0000    0.33534   0.07841   0.09262   Biso      1.000     Cu          0.664475  
         Cu5       1.0000    0.97371   0.40709   0.43184   Biso      1.000     Cu          0.904752  
         Cu6       1.0000    0.83534   0.57841   0.40738   Biso      1.000     Cu          0.705732  
         Cu7       1.0000    0.47371   0.90709   0.06816   Biso      1.000     Cu          0.909841  
         Cu8       1.0000    0.02629   0.59291   0.56816   Biso      1.000     Cu          0.903596  
         H1        1.0000    0.79390   0.35110   0.11750   Biso      1.000     H          0.130194  
         H2        1.0000    0.93330   0.42370   0.23010   Biso      1.000     H          0.09736900000000001           
         H3        1.0000    0.14680   0.37710   0.79870   Biso      1.000     H          0.091665  
         H4        1.0000    0.21770   0.29520   0.91070   Biso      1.000     H          0.133154  
         H5        1.0000    0.38710   0.20890   0.70550   Biso      1.000     H          0.135266  
         H6        1.0000    0.70610   0.14890   0.61750   Biso      1.000     H          0.131879  
         H7        1.0000    0.76990   0.25890   0.92530   Biso      1.000     H          0.100668  
         H8        1.0000    0.91550   0.33890   0.81640   Biso      1.000     H          0.12929100000000002           
         H9        1.0000    0.58450   0.16110   0.31640   Biso      1.000     H          0.12800599999999998           
         H10       1.0000    0.56670   0.07630   0.73010   Biso      1.000     H          0.099036  
         H11       1.0000    0.64680   0.87710   0.70130   Biso      1.000     H          0.091586  
         H12       1.0000    0.31320   0.29700   0.60030   Biso      1.000     H          0.094975  
         H13       1.0000    0.73010   0.24110   0.42530   Biso      1.000     H          0.098488  
         H14       1.0000    0.71770   0.79520   0.58930   Biso      1.000     H          0.132622  
         H15       1.0000    0.11290   0.29110   0.20550   Biso      1.000     H          0.134651  
         H16       1.0000    0.88710   0.70890   0.79450   Biso      1.000     H          0.135323  
         H17       1.0000    0.81320   0.79700   0.89970   Biso      1.000     H          0.094862  
         H18       1.0000    0.26990   0.75890   0.57470   Biso      1.000     H          0.099138  
         H19       1.0000    0.41550   0.83890   0.68360   Biso      1.000     H          0.128426  
         H20       1.0000    0.20610   0.64890   0.88250   Biso      1.000     H          0.131126  
         H21       1.0000    0.06670   0.57630   0.76990   Biso      1.000     H          0.09781799999999999           
         H22       1.0000    0.85320   0.62290   0.20130   Biso      1.000     H          0.091963  
         H23       1.0000    0.78230   0.70480   0.08930   Biso      1.000     H          0.132804  
         H24       1.0000    0.18680   0.20300   0.10030   Biso      1.000     H          0.094239  
         H25       1.0000    0.68680   0.70300   0.39970   Biso      1.000     H          0.094667  
         H26       1.0000    0.23010   0.74110   0.07470   Biso      1.000     H          0.100064  
         H27       1.0000    0.08450   0.66110   0.18360   Biso      1.000     H          0.12881900000000002           
         H28       1.0000    0.29390   0.85110   0.38250   Biso      1.000     H          0.13126600000000002           
         H29       1.0000    0.43330   0.92370   0.26990   Biso      1.000     H          0.09866   
         H30       1.0000    0.35320   0.12290   0.29870   Biso      1.000     H          0.091688  
         H31       1.0000    0.28230   0.20480   0.41070   Biso      1.000     H          0.131804  
         H32       1.0000    0.61290   0.79110   0.29450   Biso      1.000     H          0.13533299999999998           
         N1        1.0000    0.77900   0.65670   0.31184   Biso      1.000     N          -0.221625           
         N2        1.0000    0.15530   0.66136   0.66046   Biso      1.000     N          -0.21800100000000003          
         N3        1.0000    0.72100   0.84330   0.81184   Biso      1.000     N          -0.220585           
         N4        1.0000    0.34470   0.83864   0.16046   Biso      1.000     N          -0.211304           
         N5        1.0000    0.84470   0.33864   0.33954   Biso      1.000     N          -0.21887600000000001          
         N6        1.0000    0.22100   0.34330   0.68816   Biso      1.000     N          -0.222271           
         N7        1.0000    0.65530   0.16136   0.83954   Biso      1.000     N          -0.21162399999999998          
         N8        1.0000    0.27900   0.15670   0.18816   Biso      1.000     N          -0.214571           
         O1        1.0000    0.83420   0.69025   0.52242   Biso      1.000     O          -0.558581           
         O2        1.0000    0.39859   0.78079   0.95367   Biso      1.000     O          -0.546603           
         O3        1.0000    0.51664   0.87684   0.83841   Biso      1.000     O          -0.582626           
         O4        1.0000    0.89141   0.49302   0.49347   Biso      1.000     O          -0.78722  
         O5        1.0000    0.56923   0.85174   0.14028   Biso      1.000     O          -0.562443           
         O6        1.0000    0.66580   0.80975   0.02242   Biso      1.000     O          -0.556301           
         O7        1.0000    0.10141   0.71921   0.45367   Biso      1.000     O          -0.544231           
         O8        1.0000    0.98336   0.62316   0.33841   Biso      1.000     O          -0.580592           
         O9        1.0000    0.39141   0.99302   0.00653   Biso      1.000     O          -0.8026449999999999           
         O10       1.0000    0.16580   0.30975   0.47758   Biso      1.000     O          -0.559619           
         O11       1.0000    0.60141   0.21921   0.04633   Biso      1.000     O          -0.553122           
         O12       1.0000    0.48336   0.12316   0.16159   Biso      1.000     O          -0.589129           
         O13       1.0000    0.10859   0.50698   0.50653   Biso      1.000     O          -0.7858649999999999           
         O14       1.0000    0.43077   0.14826   0.85972   Biso      1.000     O          -0.560851           
         O15       1.0000    0.33420   0.19025   0.97758   Biso      1.000     O          -0.547341           
         O16       1.0000    0.89859   0.28079   0.54633   Biso      1.000     O          -0.542942           
         O17       1.0000    0.01664   0.37684   0.66159   Biso      1.000     O          -0.58072  
         O18       1.0000    0.93077   0.64826   0.64028   Biso      1.000     O          -0.567362           
         O19       1.0000    0.06923   0.35174   0.35972   Biso      1.000     O          -0.567318           
         O20       1.0000    0.60859   0.00698   0.99347   Biso      1.000     O          -0.776404 