
##########################################################################
#               Crystallographic Information Format file
#               Produced by PyCifRW module
#
#  This is a CIF file.  CIF has been adopted by the International
#  Union of Crystallography as the standard for data archiving and
#  transmission.
#
#  For information on this file format, follow the CIF links at
#  http://www.iucr.org
##########################################################################

data_image0

_cell_length_a                          7.694
_cell_length_b                          9.21
_cell_length_c                          10.764
_cell_angle_alpha                       108.598
_cell_angle_beta                        92.3
_cell_angle_gamma                       109.814
_symmetry_space_group_name_H-M          'P 1'
_symmetry_int_tables_number             1
loop_
  _symmetry_equiv_pos_as_xyz
         'x, y, z' 
loop_
  _atom_site_label
  _atom_site_occupancy
  _atom_site_fract_x
  _atom_site_fract_y
  _atom_site_fract_z
  _atom_site_thermal_displace_type
  _atom_site_B_iso_or_equiv
  _atom_site_type_symbol
  _atom_site_charge
         C1        1.0000    0.68360   0.62510   0.15960   Biso      1.000     C          -0.329179           
         C2        1.0000    0.21920   0.22750   0.54950   Biso      1.000     C          0.038491000000000004          
         C3        1.0000    0.25450   0.12780   0.62970   Biso      1.000     C          -0.320251           
         C4        1.0000    0.20090   0.18910   0.76810   Biso      1.000     C          0.019871  
         C5        1.0000    0.24010   0.10140   0.85880   Biso      1.000     C          0.626953  
         C6        1.0000    0.56620   0.34360   0.16890   Biso      1.000     C          0.6094689999999999  
         C7        1.0000    0.75280   0.83450   0.59460   Biso      1.000     C          0.582214  
         C8        1.0000    0.31640   0.37490   0.84040   Biso      1.000     C          -0.329181           
         C9        1.0000    0.70310   0.52140   0.24290   Biso      1.000     C          0.039486  
         C10       1.0000    0.65390   0.58880   0.38180   Biso      1.000     C          -0.32119000000000003          
         C11       1.0000    0.78080   0.77250   0.45050   Biso      1.000     C          0.038488999999999995          
         C12       1.0000    0.74550   0.87220   0.37030   Biso      1.000     C          -0.320249           
         C13       1.0000    0.79910   0.81090   0.23190   Biso      1.000     C          0.019868  
         C14       1.0000    0.75990   0.89860   0.14120   Biso      1.000     C          0.626954  
         C15       1.0000    0.34610   0.41120   0.61820   Biso      1.000     C          -0.321193           
         C16       1.0000    0.29690   0.47860   0.75710   Biso      1.000     C          0.039494  
         C17       1.0000    0.43380   0.65640   0.83110   Biso      1.000     C          0.609471  
         C18       1.0000    0.24720   0.16550   0.40540   Biso      1.000     C          0.5822149999999999  
         H1        1.0000    0.32720   0.47230   0.56590   Biso      1.000     H          0.14441500000000002           
         H2        1.0000    0.61710   0.85810   0.36100   Biso      1.000     H          0.168327  
         H3        1.0000    0.82010   0.98600   0.41460   Biso      1.000     H          0.137659  
         H4        1.0000    0.52630   0.57830   0.37330   Biso      1.000     H          0.161996  
         H5        1.0000    0.67280   0.52770   0.43410   Biso      1.000     H          0.14440799999999998           
         H6        1.0000    0.72620   0.58870   0.07790   Biso      1.000     H          0.131703  
         H7        1.0000    0.55550   0.60990   0.14240   Biso      1.000     H          0.159276  
         H8        1.0000    0.80460   0.13880   0.91710   Biso      1.000     H          0.435644  
         H9        1.0000    0.66100   0.00900   0.79280   Biso      1.000     H          0.43365   
         H10       1.0000    0.38290   0.14190   0.63900   Biso      1.000     H          0.16833199999999998           
         H11       1.0000    0.17990   0.01400   0.58540   Biso      1.000     H          0.13766099999999998           
         H12       1.0000    0.47370   0.42170   0.62670   Biso      1.000     H          0.16200499999999998           
         H13       1.0000    0.33900   0.99100   0.20720   Biso      1.000     H          0.43365   
         H14       1.0000    0.19540   0.86120   0.08290   Biso      1.000     H          0.435638  
         H15       1.0000    0.27380   0.41130   0.92210   Biso      1.000     H          0.131707  
         H16       1.0000    0.44450   0.39010   0.85760   Biso      1.000     H          0.15928   
         Ni1       1.0000    0.85027   0.86585   0.87217   Biso      1.000     Ni          0.9923569999999999  
         Ni2       1.0000    0.50000   0.00000   0.00000   Biso      1.000     Ni          0.9582209999999999  
         Ni3       1.0000    0.14973   0.13415   0.12783   Biso      1.000     Ni          0.9923540000000001  
         O1        1.0000    0.60510   0.91000   0.12720   Biso      1.000     O          -0.480843           
         O2        1.0000    0.89080   0.94830   0.07630   Biso      1.000     O          -0.676905           
         O3        1.0000    0.71500   0.02910   0.88020   Biso      1.000     O          -0.767914           
         O4        1.0000    0.39650   0.31730   0.15550   Biso      1.000     O          -0.555615           
         O5        1.0000    0.63950   0.23530   0.12520   Biso      1.000     O          -0.588413           
         O6        1.0000    0.63670   0.89970   0.62570   Biso      1.000     O          -0.530683           
         O7        1.0000    0.85270   0.81090   0.67620   Biso      1.000     O          -0.5896399999999999           
         O8        1.0000    0.39490   0.09000   0.87280   Biso      1.000     O          -0.480843           
         O9        1.0000    0.10920   0.05170   0.92370   Biso      1.000     O          -0.676904           
         O10       1.0000    0.28500   0.97090   0.11980   Biso      1.000     O          -0.767914           
         O11       1.0000    0.60350   0.68270   0.84450   Biso      1.000     O          -0.555616           
         O12       1.0000    0.36050   0.76470   0.87480   Biso      1.000     O          -0.58841  
         O13       1.0000    0.36330   0.10030   0.37430   Biso      1.000     O          -0.53068  
         O14       1.0000    0.14730   0.18910   0.32380   Biso      1.000     O          -0.589635 