
##########################################################################
#               Crystallographic Information Format file
#               Produced by PyCifRW module
#
#  This is a CIF file.  CIF has been adopted by the International
#  Union of Crystallography as the standard for data archiving and
#  transmission.
#
#  For information on this file format, follow the CIF links at
#  http://www.iucr.org
##########################################################################

data_image0

_cell_length_a                          7.673
_cell_length_b                          9.661
_cell_length_c                          10.533
_cell_angle_alpha                       106.54
_cell_angle_beta                        105.28
_cell_angle_gamma                       100.62
_symmetry_space_group_name_H-M          'P 1'
_symmetry_int_tables_number             1
loop_
  _symmetry_equiv_pos_as_xyz
         'x, y, z' 
loop_
  _atom_site_label
  _atom_site_occupancy
  _atom_site_fract_x
  _atom_site_fract_y
  _atom_site_fract_z
  _atom_site_thermal_displace_type
  _atom_site_B_iso_or_equiv
  _atom_site_type_symbol
  _atom_site_charge
         C1        1.0000    0.42610   0.71300   0.39540   Biso      1.000     C          0.721824  
         C2        1.0000    0.25770   0.44900   0.06630   Biso      1.000     C          -0.249962           
         C3        1.0000    0.26100   0.57330   0.31300   Biso      1.000     C          -0.388953           
         C4        1.0000    0.61310   0.18870   0.20400   Biso      1.000     C          -0.40765  
         C5        1.0000    0.55630   0.09080   0.28450   Biso      1.000     C          0.743498  
         C6        1.0000    0.25530   0.33790   0.81780   Biso      1.000     C          -0.392734           
         C7        1.0000    0.08450   0.20770   0.72510   Biso      1.000     C          0.699766  
         C8        1.0000    0.69090   0.54110   0.79400   Biso      1.000     C          0.170586  
         C9        1.0000    0.58110   0.63010   0.75060   Biso      1.000     C          -0.241707           
         C10       1.0000    0.31140   0.35200   0.97000   Biso      1.000     C          0.185802  
         C11       1.0000    0.52140   0.72610   0.84490   Biso      1.000     C          0.179069  
         C12       1.0000    0.68860   0.64800   0.03000   Biso      1.000     C          0.185801  
         C13       1.0000    0.74230   0.55100   0.93370   Biso      1.000     C          -0.249958           
         C14       1.0000    0.73900   0.42670   0.68700   Biso      1.000     C          -0.388953           
         C15       1.0000    0.57390   0.28700   0.60460   Biso      1.000     C          0.721824  
         C16       1.0000    0.38690   0.81130   0.79600   Biso      1.000     C          -0.40765  
         C17       1.0000    0.44370   0.90920   0.71550   Biso      1.000     C          0.743498  
         C18       1.0000    0.74470   0.66210   0.18220   Biso      1.000     C          -0.392733           
         C19       1.0000    0.91550   0.79230   0.27490   Biso      1.000     C          0.699766  
         C20       1.0000    0.57620   0.73540   0.98420   Biso      1.000     C          -0.249151           
         C21       1.0000    0.47860   0.27390   0.15510   Biso      1.000     C          0.179067  
         C22       1.0000    0.42380   0.26460   0.01580   Biso      1.000     C          -0.249151           
         C23       1.0000    0.30910   0.45890   0.20600   Biso      1.000     C          0.170589  
         C24       1.0000    0.41890   0.36990   0.24940   Biso      1.000     C          -0.241705           
         H1        1.0000    0.45300   0.37500   0.34450   Biso      1.000     H          0.122541  
         H2        1.0000    0.46280   0.19820   0.95050   Biso      1.000     H          0.125604  
         H3        1.0000    0.18410   0.51020   0.03660   Biso      1.000     H          0.123793  
         H4        1.0000    0.15190   0.60190   0.26420   Biso      1.000     H          0.1484    
         H5        1.0000    0.22490   0.52770   0.37870   Biso      1.000     H          0.160944  
         H6        1.0000    0.63260   0.12380   0.12040   Biso      1.000     H          0.156439  
         H7        1.0000    0.73590   0.26260   0.26430   Biso      1.000     H          0.15198   
         H8        1.0000    0.22910   0.43220   0.80970   Biso      1.000     H          0.157572  
         H9        1.0000    0.54700   0.62500   0.65550   Biso      1.000     H          0.122541  
         H10       1.0000    0.36200   0.32510   0.78380   Biso      1.000     H          0.146142  
         H11       1.0000    0.81590   0.48980   0.96340   Biso      1.000     H          0.123791  
         H12       1.0000    0.84810   0.39810   0.73580   Biso      1.000     H          0.1484    
         H13       1.0000    0.77510   0.47230   0.62130   Biso      1.000     H          0.160945  
         H14       1.0000    0.36740   0.87620   0.87960   Biso      1.000     H          0.15644   
         H15       1.0000    0.26410   0.73740   0.73570   Biso      1.000     H          0.151981  
         H16       1.0000    0.77090   0.56780   0.19030   Biso      1.000     H          0.157572  
         H17       1.0000    0.63800   0.67490   0.21620   Biso      1.000     H          0.146142  
         H18       1.0000    0.53720   0.80180   0.04950   Biso      1.000     H          0.125603  
         O1        1.0000    0.60630   0.93310   0.71080   Biso      1.000     O          -0.66966  
         O2        1.0000    0.95710   0.16910   0.77200   Biso      1.000     O          -0.603159           
         O3        1.0000    0.31580   0.96050   0.65700   Biso      1.000     O          -0.704498           
         O4        1.0000    0.59900   0.15700   0.58360   Biso      1.000     O          -0.767347           
         O5        1.0000    0.41210   0.29850   0.55690   Biso      1.000     O          -0.637569           
         O6        1.0000    0.06520   0.13870   0.59630   Biso      1.000     O          -0.782005           
         O7        1.0000    0.04290   0.83090   0.22800   Biso      1.000     O          -0.603159           
         O8        1.0000    0.39370   0.06690   0.28920   Biso      1.000     O          -0.66966  
         O9        1.0000    0.40100   0.84300   0.41640   Biso      1.000     O          -0.767347           
         O10       1.0000    0.58790   0.70150   0.44310   Biso      1.000     O          -0.637569           
         O11       1.0000    0.93480   0.86130   0.40370   Biso      1.000     O          -0.782005           
         O12       1.0000    0.68420   0.03950   0.34300   Biso      1.000     O          -0.704498           
         Tb1       1.0000    0.24673   0.03236   0.45113   Biso      1.000     Tb          2.100434  
         Tb2       1.0000    0.75327   0.96764   0.54887   Biso      1.000     Tb          2.100434 