
##########################################################################
#               Crystallographic Information Format file
#               Produced by PyCifRW module
#
#  This is a CIF file.  CIF has been adopted by the International
#  Union of Crystallography as the standard for data archiving and
#  transmission.
#
#  For information on this file format, follow the CIF links at
#  http://www.iucr.org
##########################################################################

data_image0

_cell_length_a                          6.044
_cell_length_b                          10.78
_cell_length_c                          11.486
_cell_angle_alpha                       68.71
_cell_angle_beta                        75.01
_cell_angle_gamma                       87.61
_symmetry_space_group_name_H-M          'P 1'
_symmetry_int_tables_number             1
loop_
  _symmetry_equiv_pos_as_xyz
         'x, y, z' 
loop_
  _atom_site_label
  _atom_site_occupancy
  _atom_site_fract_x
  _atom_site_fract_y
  _atom_site_fract_z
  _atom_site_thermal_displace_type
  _atom_site_B_iso_or_equiv
  _atom_site_type_symbol
  _atom_site_charge
         C1        1.0000    0.35200   0.88380   0.73300   Biso      1.000     C          0.6868310000000001  
         C2        1.0000    0.17800   0.67180   0.01730   Biso      1.000     C          -0.189198           
         C3        1.0000    0.14200   0.88240   0.83870   Biso      1.000     C          -0.415414           
         C4        1.0000    0.32800   0.88570   0.23810   Biso      1.000     C          -0.413264           
         C5        1.0000    0.12100   0.88680   0.34450   Biso      1.000     C          0.68845   
         C6        1.0000    0.23800   0.45340   0.18340   Biso      1.000     C          -0.42508100000000004          
         C7        1.0000    0.02600   0.37690   0.27650   Biso      1.000     C          0.658142  
         C8        1.0000    0.81800   0.19190   0.02940   Biso      1.000     C          0.19111199999999998           
         C9        1.0000    0.77100   0.12420   0.95700   Biso      1.000     C          -0.261706           
         C10       1.0000    0.22600   0.60280   0.13370   Biso      1.000     C          0.181909  
         C11       1.0000    0.72700   0.19030   0.83960   Biso      1.000     C          0.207657  
         C12       1.0000    0.77400   0.39720   0.86630   Biso      1.000     C          0.181911  
         C13       1.0000    0.82200   0.32820   0.98270   Biso      1.000     C          -0.189207           
         C14       1.0000    0.85800   0.11760   0.16130   Biso      1.000     C          -0.415415           
         C15       1.0000    0.64800   0.11620   0.26700   Biso      1.000     C          0.68683   
         C16       1.0000    0.67200   0.11430   0.76190   Biso      1.000     C          -0.41326499999999994          
         C17       1.0000    0.87900   0.11320   0.65550   Biso      1.000     C          0.688451  
         C18       1.0000    0.76200   0.54660   0.81660   Biso      1.000     C          -0.42507700000000004          
         C19       1.0000    0.97400   0.62310   0.72350   Biso      1.000     C          0.658118  
         C20       1.0000    0.72900   0.32870   0.79580   Biso      1.000     C          -0.210319           
         C21       1.0000    0.27300   0.80970   0.16040   Biso      1.000     C          0.207657  
         C22       1.0000    0.27100   0.67130   0.20420   Biso      1.000     C          -0.210317           
         C23       1.0000    0.18200   0.80810   0.97060   Biso      1.000     C          0.191106  
         C24       1.0000    0.22900   0.87580   0.04300   Biso      1.000     C          -0.26169499999999996          
         H1        1.0000    0.23150   0.97050   0.01090   Biso      1.000     H          0.122805  
         H2        1.0000    0.30170   0.62350   0.28550   Biso      1.000     H          0.134684  
         H3        1.0000    0.14240   0.62430   0.96860   Biso      1.000     H          0.12300799999999999           
         H4        1.0000    0.10580   0.97510   0.83020   Biso      1.000     H          0.148786  
         H5        1.0000    0.01010   0.83900   0.82970   Biso      1.000     H          0.170165  
         H6        1.0000    0.38060   0.97860   0.18000   Biso      1.000     H          0.150194  
         H7        1.0000    0.45400   0.84400   0.27660   Biso      1.000     H          0.16990999999999998           
         H8        1.0000    0.36560   0.43030   0.22580   Biso      1.000     H          0.161088  
         H9        1.0000    0.76850   0.02950   0.98910   Biso      1.000     H          0.122807  
         H10       1.0000    0.27670   0.42420   0.10850   Biso      1.000     H          0.164915  
         H11       1.0000    0.85760   0.37570   0.03140   Biso      1.000     H          0.123011  
         H12       1.0000    0.89420   0.02490   0.16980   Biso      1.000     H          0.148786  
         H13       1.0000    0.98990   0.16100   0.17030   Biso      1.000     H          0.170165  
         H14       1.0000    0.61940   0.02140   0.82000   Biso      1.000     H          0.150196  
         H15       1.0000    0.54600   0.15600   0.72340   Biso      1.000     H          0.16991099999999998           
         H16       1.0000    0.63440   0.56970   0.77420   Biso      1.000     H          0.161088  
         H17       1.0000    0.72330   0.57580   0.89150   Biso      1.000     H          0.16491199999999998           
         H18       1.0000    0.69830   0.37650   0.71450   Biso      1.000     H          0.134686  
         O1        1.0000    0.87400   0.03570   0.59630   Biso      1.000     O          -0.630521           
         O2        1.0000    0.83500   0.42040   0.27480   Biso      1.000     O          -0.430004           
         O3        1.0000    0.05500   0.18460   0.62460   Biso      1.000     O          -0.582344           
         O4        1.0000    0.63690   0.03880   0.38190   Biso      1.000     O          -0.639397           
         O5        1.0000    0.48980   0.18890   0.24530   Biso      1.000     O          -0.5611109999999999           
         O6        1.0000    0.05100   0.26060   0.35250   Biso      1.000     O          -0.545197           
         O7        1.0000    0.16500   0.57960   0.72520   Biso      1.000     O          -0.42998400000000003          
         O8        1.0000    0.12600   0.96430   0.40370   Biso      1.000     O          -0.6305109999999999           
         O9        1.0000    0.36310   0.96120   0.61810   Biso      1.000     O          -0.6394   
         O10       1.0000    0.51020   0.81110   0.75470   Biso      1.000     O          -0.5611109999999999           
         O11       1.0000    0.94900   0.73940   0.64750   Biso      1.000     O          -0.545186           
         O12       1.0000    0.94500   0.81540   0.37540   Biso      1.000     O          -0.582349           
         Yb1       1.0000    0.26092   0.12227   0.45521   Biso      1.000     Yb          1.343889  
         Yb2       1.0000    0.73908   0.87773   0.54479   Biso      1.000     Yb          1.343895 