
##########################################################################
#               Crystallographic Information Format file
#               Produced by PyCifRW module
#
#  This is a CIF file.  CIF has been adopted by the International
#  Union of Crystallography as the standard for data archiving and
#  transmission.
#
#  For information on this file format, follow the CIF links at
#  http://www.iucr.org
##########################################################################

data_image0

_cell_length_a                          7.727
_cell_length_b                          9.705
_cell_length_c                          10.58
_cell_angle_alpha                       106.61
_cell_angle_beta                        105.28
_cell_angle_gamma                       100.69
_symmetry_space_group_name_H-M          'P 1'
_symmetry_int_tables_number             1
loop_
  _symmetry_equiv_pos_as_xyz
         'x, y, z' 
loop_
  _atom_site_label
  _atom_site_occupancy
  _atom_site_fract_x
  _atom_site_fract_y
  _atom_site_fract_z
  _atom_site_thermal_displace_type
  _atom_site_B_iso_or_equiv
  _atom_site_type_symbol
  _atom_site_charge
         C1        1.0000    0.42560   0.71200   0.39390   Biso      1.000     C          0.658701  
         C2        1.0000    0.41800   0.36970   0.24890   Biso      1.000     C          -0.16777  
         C3        1.0000    0.30980   0.45870   0.20590   Biso      1.000     C          0.176232  
         C4        1.0000    0.31350   0.35070   0.97030   Biso      1.000     C          0.228778  
         C5        1.0000    0.25910   0.44870   0.06680   Biso      1.000     C          -0.232512           
         C6        1.0000    0.26200   0.57350   0.31130   Biso      1.000     C          -0.393192           
         C7        1.0000    0.61220   0.19040   0.20440   Biso      1.000     C          -0.41639799999999993          
         C8        1.0000    0.55760   0.09300   0.28470   Biso      1.000     C          0.6639550000000001  
         C9        1.0000    0.25750   0.33670   0.81820   Biso      1.000     C          -0.41055699999999995          
         C10       1.0000    0.08690   0.20830   0.72620   Biso      1.000     C          0.659354  
         C11       1.0000    0.69020   0.54130   0.79410   Biso      1.000     C          0.17623   
         C12       1.0000    0.58200   0.63030   0.75110   Biso      1.000     C          -0.167768           
         C13       1.0000    0.52220   0.72590   0.84460   Biso      1.000     C          0.191906  
         C14       1.0000    0.57660   0.73530   0.98330   Biso      1.000     C          -0.24029299999999998          
         C15       1.0000    0.68650   0.64930   0.02970   Biso      1.000     C          0.228778  
         C16       1.0000    0.74090   0.55130   0.93320   Biso      1.000     C          -0.23251100000000002          
         C17       1.0000    0.73800   0.42650   0.68870   Biso      1.000     C          -0.39319  
         C18       1.0000    0.57440   0.28800   0.60610   Biso      1.000     C          0.6586989999999999  
         C19       1.0000    0.38780   0.80960   0.79560   Biso      1.000     C          -0.41639799999999993          
         C20       1.0000    0.44240   0.90700   0.71530   Biso      1.000     C          0.6639550000000001  
         C21       1.0000    0.74250   0.66330   0.18180   Biso      1.000     C          -0.41055600000000003          
         C22       1.0000    0.91310   0.79170   0.27380   Biso      1.000     C          0.659356  
         C23       1.0000    0.47780   0.27410   0.15540   Biso      1.000     C          0.191906  
         C24       1.0000    0.42340   0.26470   0.01670   Biso      1.000     C          -0.240292           
         Eu1       1.0000    0.75345   0.96811   0.54930   Biso      1.000     Eu          1.3552950000000001  
         Eu2       1.0000    0.24655   0.03189   0.45070   Biso      1.000     Eu          1.355297  
         H1        1.0000    0.63710   0.67700   0.21600   Biso      1.000     H          0.147781  
         H2        1.0000    0.45130   0.37450   0.34350   Biso      1.000     H          0.12478199999999999           
         H3        1.0000    0.46200   0.19810   0.95200   Biso      1.000     H          0.13468   
         H4        1.0000    0.76710   0.56900   0.18950   Biso      1.000     H          0.155253  
         H5        1.0000    0.15460   0.60220   0.26180   Biso      1.000     H          0.148593  
         H6        1.0000    0.22430   0.52870   0.37650   Biso      1.000     H          0.161468  
         H7        1.0000    0.63200   0.12610   0.12120   Biso      1.000     H          0.157614  
         H8        1.0000    0.73390   0.26480   0.26450   Biso      1.000     H          0.15698499999999999           
         H9        1.0000    0.36290   0.32300   0.78400   Biso      1.000     H          0.147781  
         H10       1.0000    0.18620   0.50960   0.03700   Biso      1.000     H          0.130653  
         H11       1.0000    0.54870   0.62550   0.65650   Biso      1.000     H          0.12478099999999999           
         H12       1.0000    0.53800   0.80190   0.04800   Biso      1.000     H          0.134681  
         H13       1.0000    0.81380   0.49040   0.96300   Biso      1.000     H          0.130653  
         H14       1.0000    0.84540   0.39780   0.73820   Biso      1.000     H          0.148593  
         H15       1.0000    0.77570   0.47130   0.62350   Biso      1.000     H          0.161468  
         H16       1.0000    0.36800   0.87390   0.87880   Biso      1.000     H          0.157615  
         H17       1.0000    0.26610   0.73520   0.73550   Biso      1.000     H          0.15698499999999999           
         H18       1.0000    0.23290   0.43100   0.81050   Biso      1.000     H          0.155253  
         O1        1.0000    0.60530   0.93330   0.71200   Biso      1.000     O          -0.52235  
         O2        1.0000    0.31520   0.95820   0.65760   Biso      1.000     O          -0.560697           
         O3        1.0000    0.59750   0.15720   0.58540   Biso      1.000     O          -0.605179           
         O4        1.0000    0.41360   0.30030   0.55690   Biso      1.000     O          -0.5523319999999999           
         O5        1.0000    0.06710   0.13940   0.59770   Biso      1.000     O          -0.595843           
         O6        1.0000    0.40250   0.84280   0.41460   Biso      1.000     O          -0.605178           
         O7        1.0000    0.39470   0.06670   0.28800   Biso      1.000     O          -0.52235  
         O8        1.0000    0.68480   0.04180   0.34240   Biso      1.000     O          -0.560697           
         O9        1.0000    0.58640   0.69970   0.44310   Biso      1.000     O          -0.552333           
         O10       1.0000    0.04000   0.82920   0.22670   Biso      1.000     O          -0.554912           
         O11       1.0000    0.96000   0.17080   0.77330   Biso      1.000     O          -0.5549069999999999           
         O12       1.0000    0.93290   0.86060   0.40230   Biso      1.000     O          -0.595847 