
##########################################################################
#               Crystallographic Information Format file
#               Produced by PyCifRW module
#
#  This is a CIF file.  CIF has been adopted by the International
#  Union of Crystallography as the standard for data archiving and
#  transmission.
#
#  For information on this file format, follow the CIF links at
#  http://www.iucr.org
##########################################################################

data_image0

_cell_length_a                          7.7965
_cell_length_b                          9.5743
_cell_length_c                          11.464
_cell_angle_alpha                       91.93
_cell_angle_beta                        105.87
_cell_angle_gamma                       103.38
_symmetry_space_group_name_H-M          'P 1'
_symmetry_int_tables_number             1
loop_
  _symmetry_equiv_pos_as_xyz
         'x, y, z' 
loop_
  _atom_site_label
  _atom_site_occupancy
  _atom_site_fract_x
  _atom_site_fract_y
  _atom_site_fract_z
  _atom_site_thermal_displace_type
  _atom_site_B_iso_or_equiv
  _atom_site_type_symbol
  _atom_site_charge
         C1        1.0000    0.66210   0.77430   0.44290   Biso      1.000     C          0.644363  
         C2        1.0000    0.75160   0.91490   0.40600   Biso      1.000     C          -0.06884  
         C3        1.0000    0.72220   0.04530   0.44480   Biso      1.000     C          0.081712  
         C4        1.0000    0.01370   0.41970   0.70630   Biso      1.000     C          0.676833  
         C5        1.0000    0.16570   0.44280   0.82440   Biso      1.000     C          -0.353067           
         C6        1.0000    0.11430   0.36560   0.92870   Biso      1.000     C          -0.163316           
         C7        1.0000    0.27130   0.41100   0.04660   Biso      1.000     C          -0.152341           
         C8        1.0000    0.21910   0.34990   0.15600   Biso      1.000     C          -0.332155           
         C9        1.0000    0.38050   0.38680   0.27050   Biso      1.000     C          0.710747  
         C10       1.0000    0.09910   0.82670   0.66220   Biso      1.000     C          0.092196  
         C11       1.0000    0.86620   0.92030   0.33270   Biso      1.000     C          -0.050495           
         C12       1.0000    0.05900   0.94830   0.70210   Biso      1.000     C          -0.137693           
         C13       1.0000    0.24840   0.08510   0.59400   Biso      1.000     C          -0.068838           
         C14       1.0000    0.27780   0.95470   0.55520   Biso      1.000     C          0.081712  
         C15       1.0000    0.33790   0.22570   0.55710   Biso      1.000     C          0.644362  
         C16       1.0000    0.98630   0.58030   0.29370   Biso      1.000     C          0.676833  
         C17       1.0000    0.83430   0.55720   0.17560   Biso      1.000     C          -0.353068           
         C18       1.0000    0.88570   0.63440   0.07130   Biso      1.000     C          -0.163316           
         C19       1.0000    0.72870   0.58900   0.95340   Biso      1.000     C          -0.152341           
         C20       1.0000    0.78090   0.65010   0.84400   Biso      1.000     C          -0.332156           
         C21       1.0000    0.61950   0.61320   0.72950   Biso      1.000     C          0.710748  
         C22       1.0000    0.13380   0.07970   0.66730   Biso      1.000     C          -0.050496           
         C23       1.0000    0.90090   0.17330   0.33780   Biso      1.000     C          0.092196  
         C24       1.0000    0.94100   0.05170   0.29790   Biso      1.000     C          -0.137694           
         H1        1.0000    0.82560   0.75420   0.86050   Biso      1.000     H          0.136911  
         H2        1.0000    0.94980   0.26070   0.31200   Biso      1.000     H          0.085257  
         H3        1.0000    0.01790   0.05760   0.24790   Biso      1.000     H          0.119921  
         H4        1.0000    0.89280   0.83660   0.30710   Biso      1.000     H          0.119242  
         H5        1.0000    0.64780   0.04290   0.49620   Biso      1.000     H          0.097351  
         H6        1.0000    0.26780   0.41100   0.80920   Biso      1.000     H          0.148199  
         H7        1.0000    0.20850   0.54550   0.85020   Biso      1.000     H          0.143094  
         H8        1.0000    0.00460   0.38860   0.93980   Biso      1.000     H          0.099084  
         H9        1.0000    0.08710   0.26200   0.90870   Biso      1.000     H          0.10103   
         H10       1.0000    0.30760   0.51550   0.06090   Biso      1.000     H          0.098529  
         H11       1.0000    0.62350   0.62140   0.96230   Biso      1.000     H          0.102465  
         H12       1.0000    0.17440   0.24580   0.13950   Biso      1.000     H          0.13691   
         H13       1.0000    0.12000   0.38800   0.16880   Biso      1.000     H          0.129788  
         H14       1.0000    0.37650   0.37860   0.03770   Biso      1.000     H          0.102465  
         H15       1.0000    0.98210   0.94240   0.75210   Biso      1.000     H          0.119918  
         H16       1.0000    0.10720   0.16340   0.69290   Biso      1.000     H          0.119242  
         H17       1.0000    0.35220   0.95710   0.50380   Biso      1.000     H          0.097351  
         H18       1.0000    0.73220   0.58900   0.19080   Biso      1.000     H          0.1482    
         H19       1.0000    0.79150   0.45450   0.14980   Biso      1.000     H          0.143096  
         H20       1.0000    0.99540   0.61140   0.06020   Biso      1.000     H          0.099085  
         H21       1.0000    0.91290   0.73800   0.09130   Biso      1.000     H          0.10103   
         H22       1.0000    0.05020   0.73930   0.68800   Biso      1.000     H          0.085257  
         H23       1.0000    0.69240   0.48450   0.93910   Biso      1.000     H          0.09853   
         H24       1.0000    0.88000   0.61200   0.83120   Biso      1.000     H          0.129789  
         N1        1.0000    0.79500   0.17280   0.41200   Biso      1.000     N          -0.316616           
         N2        1.0000    0.20500   0.82720   0.58800   Biso      1.000     N          -0.316616           
         O1        1.0000    0.95930   0.49730   0.37680   Biso      1.000     O          -0.769747           
         O2        1.0000    0.13500   0.67240   0.31350   Biso      1.000     O          -0.598839           
         O3        1.0000    0.72890   0.66870   0.42920   Biso      1.000     O          -0.661144           
         O4        1.0000    0.63190   0.54800   0.63520   Biso      1.000     O          -0.754372           
         O5        1.0000    0.47540   0.64880   0.73050   Biso      1.000     O          -0.639828           
         O6        1.0000    0.52670   0.77050   0.48310   Biso      1.000     O          -0.647336           
         O7        1.0000    0.27110   0.33130   0.57080   Biso      1.000     O          -0.661144           
         O8        1.0000    0.36810   0.45200   0.36480   Biso      1.000     O          -0.754372           
         O9        1.0000    0.86500   0.32760   0.68650   Biso      1.000     O          -0.598839           
         O10       1.0000    0.04070   0.50270   0.62320   Biso      1.000     O          -0.769747           
         O11       1.0000    0.47330   0.22950   0.51690   Biso      1.000     O          -0.647336           
         O12       1.0000    0.52460   0.35120   0.26950   Biso      1.000     O          -0.639828           
         Pr1       1.0000    0.28634   0.57990   0.51780   Biso      1.000     Pr          2.059065  
         Pr2       1.0000    0.71366   0.42010   0.48220   Biso      1.000     Pr          2.059066 