
##########################################################################
#               Crystallographic Information Format file
#               Produced by PyCifRW module
#
#  This is a CIF file.  CIF has been adopted by the International
#  Union of Crystallography as the standard for data archiving and
#  transmission.
#
#  For information on this file format, follow the CIF links at
#  http://www.iucr.org
##########################################################################

data_image0

_cell_length_a                          10.88
_cell_length_b                          10.918
_cell_length_c                          14.122
_cell_angle_alpha                       89.335
_cell_angle_beta                        89.171
_cell_angle_gamma                       78.38
_symmetry_space_group_name_H-M          'P 1'
_symmetry_int_tables_number             1
loop_
  _symmetry_equiv_pos_as_xyz
         'x, y, z' 
loop_
  _atom_site_label
  _atom_site_occupancy
  _atom_site_fract_x
  _atom_site_fract_y
  _atom_site_fract_z
  _atom_site_thermal_displace_type
  _atom_site_B_iso_or_equiv
  _atom_site_type_symbol
  _atom_site_charge
         C1        1.0000    0.17440   0.74490   0.90990   Biso      1.000     C          -0.185001           
         C2        1.0000    0.73090   0.33430   0.24920   Biso      1.000     C          0.106921  
         C3        1.0000    0.62040   0.34640   0.30160   Biso      1.000     C          -0.176633           
         C4        1.0000    0.62670   0.34420   0.40030   Biso      1.000     C          0.1241    
         C5        1.0000    0.73090   0.33350   0.14440   Biso      1.000     C          0.122634  
         C6        1.0000    0.82560   0.25510   0.09010   Biso      1.000     C          -0.185003           
         C7        1.0000    0.81610   0.26550   0.99110   Biso      1.000     C          0.106904  
         C8        1.0000    0.63660   0.41040   0.99640   Biso      1.000     C          0.090061  
         C9        1.0000    0.70530   0.67450   0.21940   Biso      1.000     C          -0.119563           
         C10       1.0000    0.37960   0.65360   0.69840   Biso      1.000     C          -0.176631           
         C11       1.0000    0.26910   0.66650   0.85560   Biso      1.000     C          0.122632  
         C12       1.0000    0.26910   0.66570   0.75080   Biso      1.000     C          0.106919  
         C13       1.0000    0.15700   0.68000   0.70030   Biso      1.000     C          -0.182084           
         C14       1.0000    0.16070   0.67830   0.60340   Biso      1.000     C          0.103512  
         C15       1.0000    0.36190   0.59300   0.90470   Biso      1.000     C          -0.182565           
         C16       1.0000    0.84300   0.32000   0.29970   Biso      1.000     C          -0.182084           
         C17       1.0000    0.36340   0.58960   0.00360   Biso      1.000     C          0.090061  
         C18       1.0000    0.28700   0.42220   0.29960   Biso      1.000     C          0.599342  
         C19       1.0000    0.27520   0.28790   0.29910   Biso      1.000     C          -0.037345           
         C20       1.0000    0.23300   0.23000   0.37450   Biso      1.000     C          -0.107343           
         C21       1.0000    0.22200   0.10400   0.37160   Biso      1.000     C          -0.106964           
         C22       1.0000    0.25780   0.03680   0.29600   Biso      1.000     C          -0.001293           
         C23       1.0000    0.29100   0.09200   0.21450   Biso      1.000     C          -0.119519           
         C24       1.0000    0.30000   0.21400   0.21480   Biso      1.000     C          -0.124616           
         C25       1.0000    0.25280   0.89980   0.29640   Biso      1.000     C          0.608235  
         C26       1.0000    0.50730   0.65020   0.30440   Biso      1.000     C          0.584368  
         C27       1.0000    0.64390   0.65280   0.30580   Biso      1.000     C          -0.030575           
         C28       1.0000    0.70930   0.64020   0.39000   Biso      1.000     C          -0.101664           
         C29       1.0000    0.83740   0.64340   0.39130   Biso      1.000     C          -0.113085           
         C30       1.0000    0.89770   0.66470   0.30580   Biso      1.000     C          -0.021552           
         C31       1.0000    0.83250   0.67970   0.21850   Biso      1.000     C          -0.119976           
         C32       1.0000    0.18390   0.73450   0.00890   Biso      1.000     C          0.106903  
         C33       1.0000    0.83930   0.32170   0.39660   Biso      1.000     C          0.103513  
         C34       1.0000    0.63810   0.40700   0.09530   Biso      1.000     C          -0.182566           
         C35       1.0000    0.29470   0.32550   0.78060   Biso      1.000     C          -0.119563           
         C36       1.0000    0.37330   0.65580   0.59970   Biso      1.000     C          0.124099  
         C37       1.0000    0.96540   0.33080   0.69410   Biso      1.000     C          0.58626   
         C38       1.0000    0.71300   0.57780   0.70040   Biso      1.000     C          0.599342  
         C39       1.0000    0.72480   0.71210   0.70090   Biso      1.000     C          -0.037345           
         C40       1.0000    0.76700   0.77000   0.62550   Biso      1.000     C          -0.107343           
         C41       1.0000    0.77800   0.89600   0.62840   Biso      1.000     C          -0.106964           
         C42       1.0000    0.74220   0.96320   0.70400   Biso      1.000     C          -0.001293           
         C43       1.0000    0.70900   0.90800   0.78550   Biso      1.000     C          -0.119519           
         C44       1.0000    0.03460   0.66920   0.30590   Biso      1.000     C          0.586262  
         C45       1.0000    0.16750   0.32030   0.78150   Biso      1.000     C          -0.119976           
         C46       1.0000    0.74720   0.10020   0.70360   Biso      1.000     C          0.608235  
         C47       1.0000    0.49270   0.34980   0.69560   Biso      1.000     C          0.584367  
         C48       1.0000    0.35610   0.34720   0.69420   Biso      1.000     C          -0.030575           
         C49       1.0000    0.29070   0.35980   0.61000   Biso      1.000     C          -0.101664           
         C50       1.0000    0.16260   0.35660   0.60870   Biso      1.000     C          -0.113085           
         C51       1.0000    0.70000   0.78600   0.78520   Biso      1.000     C          -0.124616           
         C52       1.0000    0.10230   0.33530   0.69420   Biso      1.000     C          -0.021552           
         H1        1.0000    0.07880   0.69070   0.73320   Biso      1.000     H          0.130907  
         H2        1.0000    0.42860   0.54170   0.87070   Biso      1.000     H          0.125227  
         H3        1.0000    0.89230   0.19840   0.11940   Biso      1.000     H          0.140708  
         H4        1.0000    0.55090   0.35000   0.43570   Biso      1.000     H          0.105165  
         H5        1.0000    0.54180   0.35600   0.27090   Biso      1.000     H          0.131847  
         H6        1.0000    0.92120   0.30930   0.26680   Biso      1.000     H          0.130907  
         H7        1.0000    0.91600   0.31350   0.42960   Biso      1.000     H          0.101348  
         H8        1.0000    0.11750   0.36860   0.55110   Biso      1.000     H          0.119951  
         H9        1.0000    0.12550   0.30700   0.83900   Biso      1.000     H          0.122611  
         H10       1.0000    0.42880   0.53420   0.03530   Biso      1.000     H          0.090933  
         H11       1.0000    0.33340   0.37080   0.55230   Biso      1.000     H          0.11654   
         H12       1.0000    0.67620   0.74830   0.84180   Biso      1.000     H          0.107223  
         H13       1.0000    0.69290   0.95470   0.84210   Biso      1.000     H          0.115926  
         H14       1.0000    0.81280   0.93250   0.57540   Biso      1.000     H          0.120271  
         H15       1.0000    0.78860   0.72470   0.56870   Biso      1.000     H          0.108417  
         H16       1.0000    0.34040   0.31450   0.83800   Biso      1.000     H          0.116027  
         H17       1.0000    0.11900   0.78390   0.04570   Biso      1.000     H          0.099024  
         H18       1.0000    0.66660   0.62920   0.44770   Biso      1.000     H          0.11654   
         H19       1.0000    0.44910   0.65000   0.56430   Biso      1.000     H          0.105165  
         H20       1.0000    0.57140   0.45830   0.12930   Biso      1.000     H          0.125228  
         H21       1.0000    0.57120   0.46580   0.96470   Biso      1.000     H          0.090933  
         H22       1.0000    0.88100   0.21610   0.95430   Biso      1.000     H          0.099024  
         H23       1.0000    0.21140   0.27530   0.43130   Biso      1.000     H          0.108418  
         H24       1.0000    0.10770   0.80160   0.88060   Biso      1.000     H          0.140707  
         H25       1.0000    0.30710   0.04530   0.15790   Biso      1.000     H          0.115926  
         H26       1.0000    0.18720   0.06750   0.42460   Biso      1.000     H          0.120271  
         H27       1.0000    0.88250   0.63140   0.44890   Biso      1.000     H          0.119952  
         H28       1.0000    0.87450   0.69300   0.16100   Biso      1.000     H          0.12261   
         H29       1.0000    0.65960   0.68550   0.16200   Biso      1.000     H          0.116027  
         H30       1.0000    0.08400   0.68650   0.57040   Biso      1.000     H          0.101348  
         H31       1.0000    0.45820   0.64400   0.72910   Biso      1.000     H          0.131847  
         H32       1.0000    0.32380   0.25170   0.15820   Biso      1.000     H          0.107224  
         N1        1.0000    0.26780   0.66560   0.55320   Biso      1.000     N          -0.195935           
         N2        1.0000    0.27410   0.66310   0.05380   Biso      1.000     N          -0.181258           
         N3        1.0000    0.72590   0.33690   0.94620   Biso      1.000     N          -0.181258           
         N4        1.0000    0.73220   0.33440   0.44680   Biso      1.000     N          -0.195934           
         O1        1.0000    0.91100   0.32410   0.77350   Biso      1.000     O          -0.555114           
         O2        1.0000    0.29130   0.47190   0.37840   Biso      1.000     O          -0.551116           
         O3        1.0000    0.24970   0.84590   0.37460   Biso      1.000     O          -0.565689           
         O4        1.0000    0.45670   0.65010   0.22540   Biso      1.000     O          -0.551103           
         O5        1.0000    0.45440   0.64680   0.38570   Biso      1.000     O          -0.548131           
         O6        1.0000    0.29150   0.47680   0.22150   Biso      1.000     O          -0.576714           
         O7        1.0000    0.25100   0.84960   0.21840   Biso      1.000     O          -0.569357           
         O8        1.0000    0.08900   0.67590   0.22650   Biso      1.000     O          -0.555114           
         O9        1.0000    0.08530   0.67120   0.38690   Biso      1.000     O          -0.55198  
         O10       1.0000    0.91470   0.32880   0.61310   Biso      1.000     O          -0.55198  
         O11       1.0000    0.54560   0.35320   0.61430   Biso      1.000     O          -0.548131           
         O12       1.0000    0.54330   0.34990   0.77460   Biso      1.000     O          -0.551103           
         O13       1.0000    0.74900   0.15040   0.78160   Biso      1.000     O          -0.569357           
         O14       1.0000    0.75030   0.15410   0.62540   Biso      1.000     O          -0.565689           
         O15       1.0000    0.70870   0.52810   0.62160   Biso      1.000     O          -0.551116           
         O16       1.0000    0.70850   0.52320   0.77850   Biso      1.000     O          -0.576714           
         Zn1       1.0000    0.27301   0.66278   0.19774   Biso      1.000     Zn          0.847798  
         Zn2       1.0000    0.73070   0.34033   0.59258   Biso      1.000     Zn          0.843916  
         Zn3       1.0000    0.26930   0.65967   0.40742   Biso      1.000     Zn          0.843916  
         Zn4       1.0000    0.72699   0.33722   0.80226   Biso      1.000     Zn          0.847797 