
##########################################################################
#               Crystallographic Information Format file
#               Produced by PyCifRW module
#
#  This is a CIF file.  CIF has been adopted by the International
#  Union of Crystallography as the standard for data archiving and
#  transmission.
#
#  For information on this file format, follow the CIF links at
#  http://www.iucr.org
##########################################################################

data_image0

_cell_length_a                          6.7981
_cell_length_b                          11.978
_cell_length_c                          13.515
_cell_angle_alpha                       90
_cell_angle_beta                        100.174
_cell_angle_gamma                       90
_symmetry_space_group_name_H-M          'P 1'
_symmetry_int_tables_number             1
loop_
  _symmetry_equiv_pos_as_xyz
         'x, y, z' 
loop_
  _atom_site_label
  _atom_site_occupancy
  _atom_site_fract_x
  _atom_site_fract_y
  _atom_site_fract_z
  _atom_site_thermal_displace_type
  _atom_site_B_iso_or_equiv
  _atom_site_type_symbol
  _atom_site_charge
         C1        1.0000    0.02100   0.17420   0.41840   Biso      1.000     C          -0.13547  
         C2        1.0000    0.81700   0.40260   0.02840   Biso      1.000     C          -0.128129           
         C3        1.0000    0.84400   0.37620   0.93270   Biso      1.000     C          0.03671   
         C4        1.0000    0.68300   0.40040   0.84300   Biso      1.000     C          0.633034  
         C5        1.0000    0.02100   0.32580   0.91840   Biso      1.000     C          -0.135469           
         C6        1.0000    0.17100   0.18940   0.50070   Biso      1.000     C          0.130662  
         C7        1.0000    0.96900   0.12150   0.60790   Biso      1.000     C          0.131396  
         C8        1.0000    0.95400   0.10430   0.71640   Biso      1.000     C          0.628393  
         C9        1.0000    0.81700   0.09740   0.52840   Biso      1.000     C          -0.128126           
         C10       1.0000    0.95400   0.39570   0.21640   Biso      1.000     C          0.6283920000000001  
         C11       1.0000    0.84400   0.12380   0.43270   Biso      1.000     C          0.036711  
         C12       1.0000    0.62400   0.73390   0.00530   Biso      1.000     C          0.637813  
         C13       1.0000    0.82900   0.68940   0.99930   Biso      1.000     C          0.130662  
         C14       1.0000    0.03100   0.62150   0.89210   Biso      1.000     C          0.131396  
         C15       1.0000    0.04600   0.60430   0.78360   Biso      1.000     C          0.628393  
         C16       1.0000    0.18300   0.59740   0.97160   Biso      1.000     C          -0.128126           
         C17       1.0000    0.15600   0.62380   0.06730   Biso      1.000     C          0.03671   
         C18       1.0000    0.31700   0.59960   0.15700   Biso      1.000     C          0.633034  
         C19       1.0000    0.97900   0.67420   0.08160   Biso      1.000     C          -0.135469           
         C20       1.0000    0.68300   0.09960   0.34300   Biso      1.000     C          0.633034  
         C21       1.0000    0.96900   0.37850   0.10790   Biso      1.000     C          0.13139800000000001           
         C22       1.0000    0.37600   0.23390   0.49470   Biso      1.000     C          0.637813  
         C23       1.0000    0.37600   0.26610   0.99470   Biso      1.000     C          0.637813  
         C24       1.0000    0.97900   0.82580   0.58160   Biso      1.000     C          -0.13547  
         C25       1.0000    0.31700   0.90040   0.65700   Biso      1.000     C          0.633035  
         C26       1.0000    0.15600   0.87620   0.56730   Biso      1.000     C          0.036708  
         C27       1.0000    0.18300   0.90260   0.47160   Biso      1.000     C          -0.128126           
         C28       1.0000    0.04600   0.89570   0.28360   Biso      1.000     C          0.6283920000000001  
         C29       1.0000    0.03100   0.87850   0.39210   Biso      1.000     C          0.13139800000000001           
         C30       1.0000    0.82900   0.81060   0.49930   Biso      1.000     C          0.130662  
         C31       1.0000    0.62400   0.76610   0.50530   Biso      1.000     C          0.637813  
         C32       1.0000    0.17100   0.31060   0.00070   Biso      1.000     C          0.130662  
         H1        1.0000    0.30100   0.93590   0.46060   Biso      1.000     H          0.14368399999999998           
         H2        1.0000    0.69900   0.43590   0.03940   Biso      1.000     H          0.14368399999999998           
         H3        1.0000    0.03800   0.30260   0.85480   Biso      1.000     H          0.137972  
         H4        1.0000    0.69900   0.06410   0.53940   Biso      1.000     H          0.14368399999999998           
         H5        1.0000    0.96200   0.80260   0.64520   Biso      1.000     H          0.137972  
         H6        1.0000    0.03800   0.19740   0.35480   Biso      1.000     H          0.137973  
         H7        1.0000    0.30100   0.56410   0.96060   Biso      1.000     H          0.14368399999999998           
         H8        1.0000    0.96200   0.69740   0.14520   Biso      1.000     H          0.137972  
         N1        1.0000    0.85500   0.66360   0.90590   Biso      1.000     N          -0.419249           
         N2        1.0000    0.14500   0.33640   0.09410   Biso      1.000     N          -0.41925  
         N3        1.0000    0.85500   0.83640   0.40590   Biso      1.000     N          -0.41925  
         N4        1.0000    0.14500   0.16360   0.59410   Biso      1.000     N          -0.41925  
         O1        1.0000    0.88370   0.60050   0.72170   Biso      1.000     O          -0.662674           
         O2        1.0000    0.50480   0.74410   0.92290   Biso      1.000     O          -0.629469           
         O3        1.0000    0.58280   0.75710   0.08950   Biso      1.000     O          -0.675697           
         O4        1.0000    0.57890   0.48670   0.84530   Biso      1.000     O          -0.661573           
         O5        1.0000    0.66500   0.16790   0.27160   Biso      1.000     O          -0.66404  
         O6        1.0000    0.57890   0.01330   0.34530   Biso      1.000     O          -0.661573           
         O7        1.0000    0.78310   0.09400   0.73880   Biso      1.000     O          -0.663439           
         O8        1.0000    0.11630   0.10050   0.77830   Biso      1.000     O          -0.662674           
         O9        1.0000    0.49520   0.24410   0.57710   Biso      1.000     O          -0.629469           
         O10       1.0000    0.41720   0.25710   0.41050   Biso      1.000     O          -0.675697           
         O11       1.0000    0.66500   0.33210   0.77160   Biso      1.000     O          -0.66404  
         O12       1.0000    0.21690   0.59400   0.76120   Biso      1.000     O          -0.663439           
         O13       1.0000    0.78310   0.40600   0.23880   Biso      1.000     O          -0.663439           
         O14       1.0000    0.33500   0.66790   0.22840   Biso      1.000     O          -0.66404  
         O15       1.0000    0.49520   0.25590   0.07710   Biso      1.000     O          -0.629469           
         O16       1.0000    0.41720   0.24290   0.91050   Biso      1.000     O          -0.675697           
         O17       1.0000    0.33500   0.83210   0.72840   Biso      1.000     O          -0.66404  
         O18       1.0000    0.42110   0.98670   0.65470   Biso      1.000     O          -0.661573           
         O19       1.0000    0.21690   0.90600   0.26120   Biso      1.000     O          -0.663439           
         O20       1.0000    0.88370   0.89950   0.22170   Biso      1.000     O          -0.662674           
         O21       1.0000    0.50480   0.75590   0.42290   Biso      1.000     O          -0.629469           
         O22       1.0000    0.58280   0.74290   0.58950   Biso      1.000     O          -0.675697           
         O23       1.0000    0.42110   0.51330   0.15470   Biso      1.000     O          -0.661573           
         O24       1.0000    0.11630   0.39950   0.27830   Biso      1.000     O          -0.662674           
         Pr1       1.0000    0.55628   0.82986   0.25651   Biso      1.000     Pr          2.160073  
         Pr2       1.0000    0.44372   0.32986   0.24349   Biso      1.000     Pr          2.160073  
         Pr3       1.0000    0.44372   0.17014   0.74349   Biso      1.000     Pr          2.160072  
         Pr4       1.0000    0.55628   0.67014   0.75651   Biso      1.000     Pr          2.160073 