
##########################################################################
#               Crystallographic Information Format file
#               Produced by PyCifRW module
#
#  This is a CIF file.  CIF has been adopted by the International
#  Union of Crystallography as the standard for data archiving and
#  transmission.
#
#  For information on this file format, follow the CIF links at
#  http://www.iucr.org
##########################################################################

data_image0

_cell_length_a                          6.9875
_cell_length_b                          15.7563
_cell_length_c                          15.7563
_cell_angle_alpha                       62.1459
_cell_angle_beta                        81.4991
_cell_angle_gamma                       98.5009
_symmetry_space_group_name_H-M          'P 1'
_symmetry_int_tables_number             1
loop_
  _symmetry_equiv_pos_as_xyz
         'x, y, z' 
loop_
  _atom_site_label
  _atom_site_occupancy
  _atom_site_fract_x
  _atom_site_fract_y
  _atom_site_fract_z
  _atom_site_thermal_displace_type
  _atom_site_B_iso_or_equiv
  _atom_site_type_symbol
  _atom_site_charge
         C1        1.0000    0.10361   0.94159   0.29016   Biso      1.000     C          -0.132695           
         C2        1.0000    0.11587   0.36272   0.73161   Biso      1.000     C          -0.237369           
         C3        1.0000    0.21999   0.31207   0.79820   Biso      1.000     C          -0.045949000000000004         
         C4        1.0000    0.39377   0.29016   0.76825   Biso      1.000     C          -0.133525           
         C5        1.0000    0.45929   0.31794   0.67057   Biso      1.000     C          -0.120208           
         C6        1.0000    0.35410   0.36837   0.60067   Biso      1.000     C          -0.06954199999999999          
         C7        1.0000    0.43166   0.38766   0.50158   Biso      1.000     C          0.105001  
         C8        1.0000    0.44035   0.43748   0.33393   Biso      1.000     C          -0.259175           
         C9        1.0000    0.30879   0.47830   0.26363   Biso      1.000     C          0.6360899999999999  
         C10       1.0000    0.78693   0.97479   0.39500   Biso      1.000     C          0.322179  
         C11       1.0000    0.75315   0.90567   0.36272   Biso      1.000     C          -0.23730700000000002          
         C12       1.0000    0.90792   0.88973   0.31207   Biso      1.000     C          -0.045399           
         C13       1.0000    0.14135   0.01149   0.31794   Biso      1.000     C          -0.12205999999999999          
         C14       1.0000    0.98573   0.03096   0.36837   Biso      1.000     C          -0.068786           
         C15       1.0000    0.04400   0.11076   0.38766   Biso      1.000     C          0.10504000000000001           
         C16       1.0000    0.00287   0.22859   0.43748   Biso      1.000     C          -0.259484           
         C17       1.0000    0.83049   0.25807   0.47830   Biso      1.000     C          0.63759   
         C18       1.0000    0.81214   0.63021   0.97479   Biso      1.000     C          0.320769  
         C19       1.0000    0.84748   0.73161   0.90567   Biso      1.000     C          -0.237459           
         C20       1.0000    0.01819   0.79820   0.88973   Biso      1.000     C          -0.044735000000000004         
         C21       1.0000    0.57242   0.26363   0.25807   Biso      1.000     C          0.636778  
         C22       1.0000    0.77428   0.33393   0.22859   Biso      1.000     C          -0.258467           
         C23       1.0000    0.93324   0.50158   0.11076   Biso      1.000     C          0.10558699999999999           
         C24       1.0000    0.95477   0.60067   0.03096   Biso      1.000     C          -0.068353           
         C25       1.0000    0.18193   0.39500   0.63021   Biso      1.000     C          0.322335  
         C26       1.0000    0.42758   0.73637   0.74193   Biso      1.000     C          0.636777  
         C27       1.0000    0.22572   0.66607   0.77141   Biso      1.000     C          -0.25846399999999997          
         C28       1.0000    0.06676   0.49842   0.88924   Biso      1.000     C          0.10558900000000002           
         C29       1.0000    0.81807   0.60500   0.36979   Biso      1.000     C          0.322336  
         C30       1.0000    0.88413   0.63728   0.26839   Biso      1.000     C          -0.237368           
         C31       1.0000    0.78001   0.68793   0.20180   Biso      1.000     C          -0.045947           
         C32       1.0000    0.60623   0.70984   0.23175   Biso      1.000     C          -0.133523           
         C33       1.0000    0.54071   0.68206   0.32943   Biso      1.000     C          -0.120207           
         C34       1.0000    0.64590   0.63163   0.39933   Biso      1.000     C          -0.06954199999999999          
         C35       1.0000    0.56834   0.61234   0.49842   Biso      1.000     C          0.105003  
         C36       1.0000    0.55965   0.56252   0.66607   Biso      1.000     C          -0.25916999999999996          
         C37       1.0000    0.69121   0.52170   0.73637   Biso      1.000     C          0.636088  
         C38       1.0000    0.21307   0.02521   0.60500   Biso      1.000     C          0.322181  
         C39       1.0000    0.24685   0.09433   0.63728   Biso      1.000     C          -0.237304           
         C40       1.0000    0.12986   0.67057   0.01149   Biso      1.000     C          -0.12106199999999999          
         C41       1.0000    0.09208   0.11027   0.68793   Biso      1.000     C          -0.045398           
         C42       1.0000    0.85865   0.98851   0.68206   Biso      1.000     C          -0.12206199999999999          
         C43       1.0000    0.01427   0.96904   0.63163   Biso      1.000     C          -0.068788           
         C44       1.0000    0.95600   0.88924   0.61234   Biso      1.000     C          0.105048  
         C45       1.0000    0.99713   0.77141   0.56252   Biso      1.000     C          -0.25948499999999997          
         C46       1.0000    0.16951   0.74193   0.52170   Biso      1.000     C          0.6375930000000001  
         C47       1.0000    0.18786   0.36979   0.02521   Biso      1.000     C          0.320769  
         C48       1.0000    0.15252   0.26839   0.09433   Biso      1.000     C          -0.237458           
         C49       1.0000    0.98181   0.20180   0.11027   Biso      1.000     C          -0.044732           
         C50       1.0000    0.83798   0.23175   0.05841   Biso      1.000     C          -0.133108           
         C51       1.0000    0.87014   0.32943   0.98851   Biso      1.000     C          -0.121055           
         C52       1.0000    0.04523   0.39933   0.96904   Biso      1.000     C          -0.068355           
         C53       1.0000    0.89639   0.05841   0.70984   Biso      1.000     C          -0.132684           
         C54       1.0000    0.16202   0.76825   0.94159   Biso      1.000     C          -0.133103           
         Cu1       1.0000    0.53900   0.43220   0.09829   Biso      1.000     Cu          0.83106   
         Cu2       1.0000    0.63729   0.09829   0.46951   Biso      1.000     Cu          0.8317889999999999  
         Cu3       1.0000    0.10680   0.46951   0.43220   Biso      1.000     Cu          0.8310879999999999  
         Cu4       1.0000    0.46100   0.56780   0.90171   Biso      1.000     Cu          0.831094  
         Cu5       1.0000    0.36271   0.90171   0.53049   Biso      1.000     Cu          0.8318    
         Cu6       1.0000    0.89320   0.53049   0.56780   Biso      1.000     Cu          0.8311120000000001  
         H1        1.0000    0.82690   0.70800   0.13520   Biso      1.000     H          0.10226299999999999           
         H2        1.0000    0.57130   0.48300   0.30760   Biso      1.000     H          0.14638900000000002           
         H3        1.0000    0.45650   0.37460   0.34110   Biso      1.000     H          0.144861  
         H4        1.0000    0.62340   0.87010   0.37590   Biso      1.000     H          0.135305  
         H5        1.0000    0.88110   0.84320   0.29200   Biso      1.000     H          0.101762  
         H6        1.0000    0.20770   0.92920   0.25710   Biso      1.000     H          0.11614000000000001           
         H7        1.0000    0.27210   0.04670   0.30320   Biso      1.000     H          0.119824  
         H8        1.0000    0.17990   0.13900   0.37240   Biso      1.000     H          0.108374  
         H9        1.0000    0.08830   0.20940   0.48300   Biso      1.000     H          0.146065  
         H10       1.0000    0.03790   0.86480   0.84320   Biso      1.000     H          0.10140700000000001           
         H11       1.0000    0.00070   0.62410   0.24600   Biso      1.000     H          0.13560999999999998           
         H12       1.0000    0.55230   0.37240   0.48860   Biso      1.000     H          0.108453  
         H13       1.0000    0.27850   0.81370   0.92920   Biso      1.000     H          0.115997  
         H14       1.0000    0.22540   0.65010   0.04670   Biso      1.000     H          0.11940999999999999           
         H15       1.0000    0.04090   0.48860   0.13900   Biso      1.000     H          0.107196  
         H16       1.0000    0.87890   0.30760   0.20940   Biso      1.000     H          0.14536300000000002           
         H17       1.0000    0.79760   0.34110   0.28430   Biso      1.000     H          0.14419200000000001           
         H18       1.0000    0.08190   0.28430   0.37460   Biso      1.000     H          0.144191  
         H19       1.0000    0.57530   0.30320   0.65010   Biso      1.000     H          0.11891900000000001           
         H20       1.0000    0.75330   0.75400   0.87010   Biso      1.000     H          0.135951  
         H21       1.0000    0.17310   0.29200   0.86480   Biso      1.000     H          0.10226299999999999           
         H22       1.0000    0.46480   0.25710   0.81370   Biso      1.000     H          0.11673800000000001           
         H23       1.0000    0.53520   0.74290   0.18630   Biso      1.000     H          0.11673800000000001           
         H24       1.0000    0.42470   0.69680   0.34990   Biso      1.000     H          0.11891800000000001           
         H25       1.0000    0.44770   0.62760   0.51140   Biso      1.000     H          0.108454  
         H26       1.0000    0.42870   0.51700   0.69240   Biso      1.000     H          0.14638900000000002           
         H27       1.0000    0.54350   0.62540   0.65890   Biso      1.000     H          0.144859  
         H28       1.0000    0.37660   0.12990   0.62410   Biso      1.000     H          0.13530699999999998           
         H29       1.0000    0.11890   0.15680   0.70800   Biso      1.000     H          0.101764  
         H30       1.0000    0.79230   0.07080   0.74290   Biso      1.000     H          0.11614000000000001           
         H31       1.0000    0.82010   0.86100   0.62760   Biso      1.000     H          0.108377  
         H32       1.0000    0.72790   0.95330   0.69680   Biso      1.000     H          0.119823  
         H33       1.0000    0.91810   0.71570   0.62540   Biso      1.000     H          0.14419300000000002           
         H34       1.0000    0.24670   0.24600   0.12990   Biso      1.000     H          0.135952  
         H35       1.0000    0.96210   0.13520   0.15680   Biso      1.000     H          0.10140700000000001           
         H36       1.0000    0.72150   0.18630   0.07080   Biso      1.000     H          0.115999  
         H37       1.0000    0.77460   0.34990   0.95330   Biso      1.000     H          0.11940899999999999           
         H38       1.0000    0.95910   0.51140   0.86100   Biso      1.000     H          0.107196  
         H39       1.0000    0.12110   0.69240   0.79060   Biso      1.000     H          0.145362  
         H40       1.0000    0.20240   0.65890   0.71570   Biso      1.000     H          0.144189  
         H41       1.0000    0.99930   0.37590   0.75400   Biso      1.000     H          0.13560899999999998           
         H42       1.0000    0.91170   0.79060   0.51700   Biso      1.000     H          0.146069  
         N1        1.0000    0.07620   0.85442   0.57602   Biso      1.000     N          -0.23875300000000002          
         N2        1.0000    0.65222   0.57602   0.56956   Biso      1.000     N          -0.238485           
         N3        1.0000    0.22178   0.56956   0.85442   Biso      1.000     N          -0.237535           
         N4        1.0000    0.77822   0.43044   0.14558   Biso      1.000     N          -0.237529           
         N5        1.0000    0.92380   0.14558   0.42398   Biso      1.000     N          -0.238758           
         N6        1.0000    0.34778   0.42398   0.43044   Biso      1.000     N          -0.238483           
         O1        1.0000    0.84727   0.50352   0.70331   Biso      1.000     O          -0.5530619999999999           
         O2        1.0000    0.36397   0.01486   0.55025   Biso      1.000     O          -0.537806           
         O3        1.0000    0.13507   0.67038   0.50877   Biso      1.000     O          -0.57218  
         O4        1.0000    0.34375   0.79317   0.50352   Biso      1.000     O          -0.554118           
         O5        1.0000    0.34911   0.43489   0.01486   Biso      1.000     O          -0.5369550000000001           
         O6        1.0000    0.46469   0.82085   0.67038   Biso      1.000     O          -0.5719770000000001           
         O7        1.0000    0.55058   0.70331   0.79317   Biso      1.000     O          -0.553863           
         O8        1.0000    0.08578   0.44975   0.56511   Biso      1.000     O          -0.5379649999999999           
         O9        1.0000    0.35616   0.49123   0.17915   Biso      1.000     O          -0.572384           
         O10       1.0000    0.63603   0.98514   0.44975   Biso      1.000     O          -0.537813           
         O11       1.0000    0.86493   0.32962   0.49123   Biso      1.000     O          -0.572188           
         O12       1.0000    0.65625   0.20683   0.49648   Biso      1.000     O          -0.554132           
         O13       1.0000    0.65089   0.56511   0.98514   Biso      1.000     O          -0.536958           
         O14       1.0000    0.53531   0.17915   0.32962   Biso      1.000     O          -0.571979           
         O15       1.0000    0.44942   0.29669   0.20683   Biso      1.000     O          -0.5538609999999999           
         O16       1.0000    0.64384   0.50877   0.82085   Biso      1.000     O          -0.572385           
         O17       1.0000    0.15273   0.49648   0.29669   Biso      1.000     O          -0.553067           
         O18       1.0000    0.91422   0.55025   0.43489   Biso      1.000     O          -0.537961 