
##########################################################################
#               Crystallographic Information Format file
#               Produced by PyCifRW module
#
#  This is a CIF file.  CIF has been adopted by the International
#  Union of Crystallography as the standard for data archiving and
#  transmission.
#
#  For information on this file format, follow the CIF links at
#  http://www.iucr.org
##########################################################################

data_image0

_cell_length_a                          11.0552
_cell_length_b                          11.0713
_cell_length_c                          17.6488
_cell_angle_alpha                       93.084
_cell_angle_beta                        104.429
_cell_angle_gamma                       119.032
_symmetry_space_group_name_H-M          'P 1'
_symmetry_int_tables_number             1
loop_
  _symmetry_equiv_pos_as_xyz
         'x, y, z' 
loop_
  _atom_site_label
  _atom_site_occupancy
  _atom_site_fract_x
  _atom_site_fract_y
  _atom_site_fract_z
  _atom_site_thermal_displace_type
  _atom_site_B_iso_or_equiv
  _atom_site_type_symbol
  _atom_site_charge
         C1        1.0000    0.61500   0.62860   0.99790   Biso      1.000     C          -0.010028           
         C2        1.0000    0.52710   0.52600   0.92700   Biso      1.000     C          -0.099358           
         C3        1.0000    0.73700   0.77020   0.99500   Biso      1.000     C          0.572453  
         C4        1.0000    0.11710   0.92010   0.11860   Biso      1.000     C          0.582627  
         C5        1.0000    0.15120   0.80750   0.13600   Biso      1.000     C          -0.006431999999999999         
         C6        1.0000    0.26710   0.83240   0.20130   Biso      1.000     C          -0.101228           
         C7        1.0000    0.28730   0.72070   0.21910   Biso      1.000     C          -0.10241800000000001          
         C8        1.0000    0.19150   0.58470   0.17090   Biso      1.000     C          -0.019761           
         C9        1.0000    0.07600   0.56090   0.10650   Biso      1.000     C          -0.099483           
         C10       1.0000    0.05750   0.67300   0.08770   Biso      1.000     C          -0.11341400000000001          
         C11       1.0000    0.58740   0.60090   0.06890   Biso      1.000     C          -0.09898  
         C12       1.0000    0.20460   0.46290   0.19680   Biso      1.000     C          0.604715  
         C13       1.0000    0.22690   0.26090   0.60680   Biso      1.000     C          -0.023409           
         C14       1.0000    0.30250   0.25580   0.68070   Biso      1.000     C          -0.10483599999999998          
         C15       1.0000    0.23020   0.14880   0.71810   Biso      1.000     C          -0.10045499999999999          
         C16       1.0000    0.08290   0.04500   0.68260   Biso      1.000     C          -0.02877  
         C17       1.0000    0.00680   0.04910   0.60780   Biso      1.000     C          -0.098183           
         C18       1.0000    0.07820   0.15510   0.56870   Biso      1.000     C          -0.09936299999999999          
         C19       1.0000    0.00750   0.92540   0.72190   Biso      1.000     C          0.596241  
         C20       1.0000    0.50340   0.26600   0.51060   Biso      1.000     C          0.591854  
         C21       1.0000    0.50090   0.12790   0.50440   Biso      1.000     C          -0.016055           
         C22       1.0000    0.30120   0.37420   0.56080   Biso      1.000     C          0.589272  
         C23       1.0000    0.88290   0.07990   0.88140   Biso      1.000     C          0.5826279999999999  
         C24       1.0000    0.84880   0.19250   0.86400   Biso      1.000     C          -0.0064329999999999995        
         C25       1.0000    0.73290   0.16760   0.79870   Biso      1.000     C          -0.101229           
         C26       1.0000    0.41260   0.39910   0.93110   Biso      1.000     C          -0.098981           
         C27       1.0000    0.47290   0.47400   0.07300   Biso      1.000     C          -0.099359           
         C28       1.0000    0.38500   0.37140   0.00210   Biso      1.000     C          -0.010025           
         C29       1.0000    0.26300   0.22980   0.00500   Biso      1.000     C          0.572446  
         C30       1.0000    0.59220   0.98380   0.56100   Biso      1.000     C          -0.101485           
         C31       1.0000    0.40810   0.89200   0.43350   Biso      1.000     C          -0.10326300000000001          
         C32       1.0000    0.49910   0.87210   0.49560   Biso      1.000     C          -0.016053           
         C33       1.0000    0.49660   0.73400   0.48940   Biso      1.000     C          0.591854  
         C34       1.0000    0.99250   0.07460   0.27810   Biso      1.000     C          0.59624   
         C35       1.0000    0.92180   0.84490   0.43130   Biso      1.000     C          -0.099362           
         C36       1.0000    0.99320   0.95090   0.39220   Biso      1.000     C          -0.09818400000000001          
         C37       1.0000    0.91710   0.95500   0.31740   Biso      1.000     C          -0.02877  
         C38       1.0000    0.76980   0.85120   0.28190   Biso      1.000     C          -0.10045599999999999          
         C39       1.0000    0.69750   0.74420   0.31930   Biso      1.000     C          -0.104835           
         C40       1.0000    0.77310   0.73910   0.39320   Biso      1.000     C          -0.023409           
         C41       1.0000    0.69880   0.62580   0.43920   Biso      1.000     C          0.58927   
         C42       1.0000    0.79540   0.53710   0.80320   Biso      1.000     C          0.604715  
         C43       1.0000    0.94250   0.32700   0.91230   Biso      1.000     C          -0.11341500000000002          
         C44       1.0000    0.92400   0.43910   0.89350   Biso      1.000     C          -0.099485           
         C45       1.0000    0.80850   0.41530   0.82910   Biso      1.000     C          -0.019757           
         C46       1.0000    0.71270   0.27930   0.78090   Biso      1.000     C          -0.10242000000000001          
         C47       1.0000    0.59190   0.10800   0.56650   Biso      1.000     C          -0.103255           
         C48       1.0000    0.40780   0.01620   0.43900   Biso      1.000     C          -0.101477           
         Eu1       1.0000    0.32056   0.39764   0.37876   Biso      1.000     Eu          1.391744  
         Eu2       1.0000    0.67944   0.60236   0.62124   Biso      1.000     Eu          1.391753  
         Eu3       1.0000    0.00114   0.10577   0.09493   Biso      1.000     Eu          1.364158  
         Eu4       1.0000    0.99886   0.89423   0.90507   Biso      1.000     Eu          1.364163  
         H1        1.0000    0.35110   0.32900   0.88360   Biso      1.000     H          0.11550099999999999           
         H2        1.0000    0.33200   0.92450   0.23360   Biso      1.000     H          0.12599000000000002           
         H3        1.0000    0.36580   0.73660   0.26380   Biso      1.000     H          0.11985799999999999           
         H4        1.0000    0.00940   0.46840   0.07500   Biso      1.000     H          0.11411700000000001           
         H5        1.0000    0.98080   0.65760   0.04190   Biso      1.000     H          0.11499300000000001           
         H6        1.0000    0.40260   0.32490   0.70540   Biso      1.000     H          0.123365  
         H7        1.0000    0.90650   0.97980   0.58360   Biso      1.000     H          0.120199  
         H8        1.0000    0.02790   0.15680   0.51690   Biso      1.000     H          0.12184600000000001           
         H9        1.0000    0.65410   0.18080   0.61280   Biso      1.000     H          0.11485899999999999           
         H10       1.0000    0.34240   0.02610   0.39700   Biso      1.000     H          0.118051  
         H11       1.0000    0.28160   0.14540   0.76910   Biso      1.000     H          0.11663499999999999           
         H12       1.0000    0.64890   0.67100   0.11640   Biso      1.000     H          0.11550099999999999           
         H13       1.0000    0.45430   0.45680   0.12230   Biso      1.000     H          0.13105899999999998           
         H14       1.0000    0.54570   0.54320   0.87770   Biso      1.000     H          0.13105899999999998           
         H15       1.0000    0.34590   0.81920   0.38720   Biso      1.000     H          0.11485999999999999           
         H16       1.0000    0.97210   0.84320   0.48310   Biso      1.000     H          0.12184600000000001           
         H17       1.0000    0.09350   0.02020   0.41640   Biso      1.000     H          0.120199  
         H18       1.0000    0.71840   0.85460   0.23090   Biso      1.000     H          0.11663499999999999           
         H19       1.0000    0.65760   0.97390   0.60300   Biso      1.000     H          0.118051  
         H20       1.0000    0.01920   0.34240   0.95810   Biso      1.000     H          0.114994  
         H21       1.0000    0.99060   0.53160   0.92500   Biso      1.000     H          0.11411800000000001           
         H22       1.0000    0.63420   0.26340   0.73620   Biso      1.000     H          0.119859  
         H23       1.0000    0.66800   0.07550   0.76640   Biso      1.000     H          0.12599100000000002           
         H24       1.0000    0.59740   0.67510   0.29460   Biso      1.000     H          0.123365  
         O1        1.0000    0.85570   0.98820   0.82520   Biso      1.000     O          -0.490996           
         O2        1.0000    0.39560   0.63410   0.43420   Biso      1.000     O          -0.541694           
         O3        1.0000    0.59490   0.73180   0.54470   Biso      1.000     O          -0.5209699999999999           
         O4        1.0000    0.92170   0.06970   0.20720   Biso      1.000     O          -0.51048  
         O5        1.0000    0.12100   0.17270   0.31760   Biso      1.000     O          -0.541192           
         O6        1.0000    0.57050   0.52910   0.40170   Biso      1.000     O          -0.515545           
         O7        1.0000    0.77170   0.63560   0.50970   Biso      1.000     O          -0.521529           
         O8        1.0000    0.89020   0.65960   0.84660   Biso      1.000     O          -0.583043           
         O9        1.0000    0.69440   0.51200   0.74180   Biso      1.000     O          -0.5670069999999999           
         O10       1.0000    0.94430   0.08300   0.95340   Biso      1.000     O          -0.617252           
         O11       1.0000    0.77860   0.77740   0.93440   Biso      1.000     O          -0.480996           
         O12       1.0000    0.20910   0.12690   0.94600   Biso      1.000     O          -0.511938           
         O13       1.0000    0.60440   0.36590   0.56580   Biso      1.000     O          -0.5416979999999999           
         O14       1.0000    0.40510   0.26820   0.45530   Biso      1.000     O          -0.520964           
         O15       1.0000    0.07830   0.93030   0.79280   Biso      1.000     O          -0.510474           
         O16       1.0000    0.87900   0.82730   0.68240   Biso      1.000     O          -0.54119  
         O17       1.0000    0.42950   0.47090   0.59830   Biso      1.000     O          -0.515552           
         O18       1.0000    0.22830   0.36440   0.49030   Biso      1.000     O          -0.521522           
         O19       1.0000    0.10980   0.34040   0.15340   Biso      1.000     O          -0.5830350000000001           
         O20       1.0000    0.30560   0.48800   0.25820   Biso      1.000     O          -0.567008           
         O21       1.0000    0.05570   0.91700   0.04660   Biso      1.000     O          -0.617254           
         O22       1.0000    0.14430   0.01180   0.17480   Biso      1.000     O          -0.490996           
         O23       1.0000    0.79090   0.87310   0.05400   Biso      1.000     O          -0.511939           
         O24       1.0000    0.22140   0.22260   0.06560   Biso      1.000     O          -0.48098100000000005 