
##########################################################################
#               Crystallographic Information Format file
#               Produced by PyCifRW module
#
#  This is a CIF file.  CIF has been adopted by the International
#  Union of Crystallography as the standard for data archiving and
#  transmission.
#
#  For information on this file format, follow the CIF links at
#  http://www.iucr.org
##########################################################################

data_image0

_cell_length_a                          24.311
_cell_length_b                          24.311
_cell_length_c                          24.311
_cell_angle_alpha                       60
_cell_angle_beta                        60
_cell_angle_gamma                       60
_symmetry_space_group_name_H-M          'P 1'
_symmetry_int_tables_number             1
loop_
  _symmetry_equiv_pos_as_xyz
         'x, y, z' 
loop_
  _atom_site_label
  _atom_site_occupancy
  _atom_site_fract_x
  _atom_site_fract_y
  _atom_site_fract_z
  _atom_site_thermal_displace_type
  _atom_site_B_iso_or_equiv
  _atom_site_type_symbol
  _atom_site_charge
         C1        1.0000    0.61470   0.42590   0.97970   Biso      1.000     C          -0.158849           
         C2        1.0000    0.91650   0.63250   0.91650   Biso      1.000     C          -0.160988           
         C3        1.0000    0.95720   0.58940   0.95720   Biso      1.000     C          0.090218  
         C4        1.0000    0.97970   0.61470   0.97970   Biso      1.000     C          -0.15885  
         C5        1.0000    0.53450   0.91650   0.63250   Biso      1.000     C          -0.16103  
         C6        1.0000    0.49620   0.95720   0.58940   Biso      1.000     C          0.090223  
         C7        1.0000    0.42590   0.97970   0.61470   Biso      1.000     C          -0.158848           
         C8        1.0000    0.63250   0.91650   0.53450   Biso      1.000     C          -0.16102  
         C9        1.0000    0.97970   0.42590   0.97970   Biso      1.000     C          -0.158849           
         C10       1.0000    0.58940   0.95720   0.49620   Biso      1.000     C          0.090222  
         C11       1.0000    0.91650   0.53450   0.63250   Biso      1.000     C          -0.160987           
         C12       1.0000    0.95720   0.49620   0.58940   Biso      1.000     C          0.090218  
         C13       1.0000    0.97970   0.42590   0.61470   Biso      1.000     C          -0.158849           
         C14       1.0000    0.91650   0.63250   0.53450   Biso      1.000     C          -0.160987           
         C15       1.0000    0.95720   0.58940   0.49620   Biso      1.000     C          0.090219  
         C16       1.0000    0.97970   0.61470   0.42590   Biso      1.000     C          -0.15885  
         C17       1.0000    0.63250   0.91650   0.91650   Biso      1.000     C          -0.160988           
         C18       1.0000    0.61470   0.97970   0.42590   Biso      1.000     C          -0.158849           
         C19       1.0000    0.95720   0.49620   0.95720   Biso      1.000     C          0.090218  
         C20       1.0000    0.91650   0.53450   0.91650   Biso      1.000     C          -0.160987           
         C21       1.0000    0.97970   0.97970   0.61470   Biso      1.000     C          -0.158849           
         C22       1.0000    0.41060   0.04280   0.50380   Biso      1.000     C          0.090217  
         C23       1.0000    0.08350   0.36750   0.08350   Biso      1.000     C          -0.160989           
         C24       1.0000    0.04280   0.41060   0.04280   Biso      1.000     C          0.090213  
         C25       1.0000    0.02030   0.38530   0.02030   Biso      1.000     C          -0.158847           
         C26       1.0000    0.08350   0.46550   0.08350   Biso      1.000     C          -0.160988           
         C27       1.0000    0.04280   0.50380   0.04280   Biso      1.000     C          0.090213  
         C28       1.0000    0.02030   0.57410   0.02030   Biso      1.000     C          -0.158847           
         C29       1.0000    0.63250   0.53450   0.91650   Biso      1.000     C          -0.160989           
         C30       1.0000    0.58940   0.49620   0.95720   Biso      1.000     C          0.090219  
         C31       1.0000    0.53450   0.63250   0.91650   Biso      1.000     C          -0.16099  
         C32       1.0000    0.49620   0.58940   0.95720   Biso      1.000     C          0.090219  
         C33       1.0000    0.42590   0.61470   0.97970   Biso      1.000     C          -0.158849           
         C34       1.0000    0.91650   0.91650   0.53450   Biso      1.000     C          -0.161019           
         C35       1.0000    0.95720   0.95720   0.49620   Biso      1.000     C          0.090222  
         C36       1.0000    0.97970   0.97970   0.42590   Biso      1.000     C          -0.158849           
         C37       1.0000    0.91650   0.91650   0.63250   Biso      1.000     C          -0.16103  
         C38       1.0000    0.95720   0.95720   0.58940   Biso      1.000     C          0.090223  
         C39       1.0000    0.58940   0.95720   0.95720   Biso      1.000     C          0.090218  
         C40       1.0000    0.36750   0.08350   0.46550   Biso      1.000     C          -0.161019           
         C41       1.0000    0.61470   0.97970   0.97970   Biso      1.000     C          -0.158849           
         C42       1.0000    0.49620   0.95720   0.95720   Biso      1.000     C          0.090218  
         C43       1.0000    0.51920   0.51920   0.98080   Biso      1.000     C          0.013493  
         C44       1.0000    0.89520   0.89520   0.60480   Biso      1.000     C          -0.028196           
         C45       1.0000    0.85630   0.85630   0.64370   Biso      1.000     C          0.64596   
         C46       1.0000    0.98080   0.98080   0.51920   Biso      1.000     C          0.013492  
         C47       1.0000    0.89520   0.60480   0.89520   Biso      1.000     C          -0.028281           
         C48       1.0000    0.85630   0.64370   0.85630   Biso      1.000     C          0.645985  
         C49       1.0000    0.98080   0.51920   0.98080   Biso      1.000     C          0.013493  
         C50       1.0000    0.64370   0.64370   0.85630   Biso      1.000     C          0.645968  
         C51       1.0000    0.60480   0.89520   0.60480   Biso      1.000     C          -0.028196           
         C52       1.0000    0.51920   0.98080   0.51920   Biso      1.000     C          0.013492  
         C53       1.0000    0.89520   0.60480   0.60480   Biso      1.000     C          -0.02828  
         C54       1.0000    0.85630   0.64370   0.64370   Biso      1.000     C          0.645985  
         C55       1.0000    0.98080   0.51920   0.51920   Biso      1.000     C          0.013493  
         C56       1.0000    0.60480   0.89520   0.89520   Biso      1.000     C          -0.02828  
         C57       1.0000    0.64370   0.85630   0.85630   Biso      1.000     C          0.645985  
         C58       1.0000    0.51920   0.98080   0.98080   Biso      1.000     C          0.013493  
         C59       1.0000    0.64370   0.85630   0.64370   Biso      1.000     C          0.64596   
         C60       1.0000    0.60480   0.60480   0.89520   Biso      1.000     C          -0.028262           
         C61       1.0000    0.01920   0.48080   0.01920   Biso      1.000     C          0.013545  
         C62       1.0000    0.14370   0.35630   0.14370   Biso      1.000     C          0.645968  
         C63       1.0000    0.42590   0.97970   0.97970   Biso      1.000     C          -0.158849           
         C64       1.0000    0.39520   0.39520   0.10480   Biso      1.000     C          -0.028281           
         C65       1.0000    0.35630   0.35630   0.14370   Biso      1.000     C          0.645985  
         C66       1.0000    0.48080   0.48080   0.01920   Biso      1.000     C          0.013545  
         C67       1.0000    0.10480   0.10480   0.39520   Biso      1.000     C          -0.028196           
         C68       1.0000    0.14370   0.14370   0.35630   Biso      1.000     C          0.645961  
         C69       1.0000    0.01920   0.01920   0.48080   Biso      1.000     C          0.013544  
         C70       1.0000    0.39520   0.10480   0.10480   Biso      1.000     C          -0.028281           
         C71       1.0000    0.35630   0.14370   0.14370   Biso      1.000     C          0.645985  
         C72       1.0000    0.48080   0.01920   0.01920   Biso      1.000     C          0.013545  
         C73       1.0000    0.10480   0.39520   0.39520   Biso      1.000     C          -0.028281           
         C74       1.0000    0.14370   0.35630   0.35630   Biso      1.000     C          0.645985  
         C75       1.0000    0.01920   0.48080   0.48080   Biso      1.000     C          0.013545  
         C76       1.0000    0.39520   0.10480   0.39520   Biso      1.000     C          -0.028196           
         C77       1.0000    0.35630   0.14370   0.35630   Biso      1.000     C          0.64596   
         C78       1.0000    0.48080   0.01920   0.48080   Biso      1.000     C          0.013544  
         C79       1.0000    0.10480   0.39520   0.10480   Biso      1.000     C          -0.028263           
         C80       1.0000    0.53450   0.91650   0.91650   Biso      1.000     C          -0.160987           
         C81       1.0000    0.57410   0.02030   0.38530   Biso      1.000     C          -0.158846           
         C82       1.0000    0.38530   0.02030   0.57410   Biso      1.000     C          -0.158848           
         C83       1.0000    0.46550   0.08350   0.36750   Biso      1.000     C          -0.161029           
         C84       1.0000    0.50380   0.04280   0.41060   Biso      1.000     C          0.090217  
         C85       1.0000    0.46550   0.36750   0.08350   Biso      1.000     C          -0.160986           
         C86       1.0000    0.50380   0.41060   0.04280   Biso      1.000     C          0.090213  
         C87       1.0000    0.36750   0.46550   0.08350   Biso      1.000     C          -0.160986           
         C88       1.0000    0.41060   0.50380   0.04280   Biso      1.000     C          0.090213  
         C89       1.0000    0.38530   0.57410   0.02030   Biso      1.000     C          -0.158848           
         C90       1.0000    0.08350   0.08350   0.46550   Biso      1.000     C          -0.161018           
         C91       1.0000    0.04280   0.04280   0.50380   Biso      1.000     C          0.090216  
         C92       1.0000    0.02030   0.02030   0.57410   Biso      1.000     C          -0.158847           
         C93       1.0000    0.08350   0.08350   0.36750   Biso      1.000     C          -0.161029           
         C94       1.0000    0.04280   0.04280   0.41060   Biso      1.000     C          0.090218  
         C95       1.0000    0.02030   0.02030   0.38530   Biso      1.000     C          -0.158846           
         C96       1.0000    0.46550   0.08350   0.08350   Biso      1.000     C          -0.160986           
         C97       1.0000    0.57410   0.38530   0.02030   Biso      1.000     C          -0.158848           
         C98       1.0000    0.57410   0.02030   0.02030   Biso      1.000     C          -0.158847           
         C99       1.0000    0.36750   0.08350   0.08350   Biso      1.000     C          -0.160987           
         C100      1.0000    0.41060   0.04280   0.04280   Biso      1.000     C          0.090213  
         C101      1.0000    0.38530   0.02030   0.02030   Biso      1.000     C          -0.158848           
         C102      1.0000    0.08350   0.46550   0.36750   Biso      1.000     C          -0.160986           
         C103      1.0000    0.04280   0.50380   0.41060   Biso      1.000     C          0.090213  
         C104      1.0000    0.02030   0.57410   0.38530   Biso      1.000     C          -0.158848           
         C105      1.0000    0.08350   0.36750   0.46550   Biso      1.000     C          -0.160986           
         C106      1.0000    0.04280   0.41060   0.50380   Biso      1.000     C          0.090213  
         C107      1.0000    0.50380   0.04280   0.04280   Biso      1.000     C          0.090213  
         C108      1.0000    0.02030   0.38530   0.57410   Biso      1.000     C          -0.158848           
         H1        1.0000    0.59510   0.33870   0.03310   Biso      1.000     H          0.113722  
         H2        1.0000    0.09620   0.32100   0.48660   Biso      1.000     H          0.132965  
         H3        1.0000    0.03310   0.33870   0.59510   Biso      1.000     H          0.113721  
         H4        1.0000    0.48660   0.09620   0.32100   Biso      1.000     H          0.132965  
         H5        1.0000    0.09620   0.32100   0.09620   Biso      1.000     H          0.132964  
         H6        1.0000    0.32100   0.09620   0.48660   Biso      1.000     H          0.132966  
         H7        1.0000    0.33870   0.03310   0.59510   Biso      1.000     H          0.113722  
         H8        1.0000    0.03310   0.59510   0.33870   Biso      1.000     H          0.113722  
         H9        1.0000    0.03310   0.33870   0.03310   Biso      1.000     H          0.113722  
         H10       1.0000    0.59510   0.03310   0.33870   Biso      1.000     H          0.113722  
         H11       1.0000    0.09620   0.48660   0.32100   Biso      1.000     H          0.132965  
         H12       1.0000    0.03310   0.03310   0.33870   Biso      1.000     H          0.113722  
         H13       1.0000    0.32100   0.09620   0.09620   Biso      1.000     H          0.132964  
         H14       1.0000    0.59510   0.03310   0.03310   Biso      1.000     H          0.113722  
         H15       1.0000    0.48660   0.09620   0.09620   Biso      1.000     H          0.132965  
         H16       1.0000    0.09620   0.09620   0.32100   Biso      1.000     H          0.132965  
         H17       1.0000    0.03310   0.03310   0.59510   Biso      1.000     H          0.113722  
         H18       1.0000    0.09620   0.09620   0.48660   Biso      1.000     H          0.132966  
         H19       1.0000    0.33870   0.59510   0.03310   Biso      1.000     H          0.113722  
         H20       1.0000    0.32100   0.48660   0.09620   Biso      1.000     H          0.132965  
         H21       1.0000    0.48660   0.32100   0.09620   Biso      1.000     H          0.132965  
         H22       1.0000    0.09620   0.48660   0.09620   Biso      1.000     H          0.132965  
         H23       1.0000    0.33870   0.03310   0.03310   Biso      1.000     H          0.113722  
         H24       1.0000    0.03310   0.59510   0.03310   Biso      1.000     H          0.113721  
         H25       1.0000    0.90380   0.90380   0.67900   Biso      1.000     H          0.132965  
         H26       1.0000    0.66130   0.40490   0.96690   Biso      1.000     H          0.113721  
         H27       1.0000    0.40490   0.96690   0.96690   Biso      1.000     H          0.113722  
         H28       1.0000    0.51340   0.90380   0.90380   Biso      1.000     H          0.132965  
         H29       1.0000    0.67900   0.51340   0.90380   Biso      1.000     H          0.132965  
         H30       1.0000    0.67900   0.90380   0.90380   Biso      1.000     H          0.132964  
         H31       1.0000    0.96690   0.66130   0.40490   Biso      1.000     H          0.113722  
         H32       1.0000    0.90380   0.67900   0.51340   Biso      1.000     H          0.132965  
         H33       1.0000    0.96690   0.40490   0.66130   Biso      1.000     H          0.113722  
         H34       1.0000    0.90380   0.51340   0.67900   Biso      1.000     H          0.132965  
         H35       1.0000    0.66130   0.96690   0.40490   Biso      1.000     H          0.113722  
         H36       1.0000    0.67900   0.90380   0.51340   Biso      1.000     H          0.132966  
         H37       1.0000    0.66130   0.96690   0.96690   Biso      1.000     H          0.113722  
         H38       1.0000    0.51340   0.90380   0.67900   Biso      1.000     H          0.132965  
         H39       1.0000    0.40490   0.96690   0.66130   Biso      1.000     H          0.113722  
         H40       1.0000    0.51340   0.67900   0.90380   Biso      1.000     H          0.132965  
         H41       1.0000    0.90380   0.90380   0.51340   Biso      1.000     H          0.132966  
         H42       1.0000    0.96690   0.96690   0.40490   Biso      1.000     H          0.113722  
         H43       1.0000    0.40490   0.66130   0.96690   Biso      1.000     H          0.113721  
         H44       1.0000    0.90380   0.51340   0.90380   Biso      1.000     H          0.132965  
         H45       1.0000    0.96690   0.40490   0.96690   Biso      1.000     H          0.113722  
         H46       1.0000    0.90380   0.67900   0.90380   Biso      1.000     H          0.132964  
         H47       1.0000    0.96690   0.66130   0.96690   Biso      1.000     H          0.113722  
         H48       1.0000    0.96690   0.96690   0.66130   Biso      1.000     H          0.113722  
         O1        1.0000    0.70630   0.61630   0.83870   Biso      1.000     O          -0.570509           
         O2        1.0000    0.29370   0.16130   0.38370   Biso      1.000     O          -0.570509           
         O3        1.0000    0.38370   0.16130   0.29370   Biso      1.000     O          -0.570508           
         O4        1.0000    0.16130   0.38370   0.16130   Biso      1.000     O          -0.570509           
         O5        1.0000    0.16130   0.29370   0.16130   Biso      1.000     O          -0.570509           
         O6        1.0000    0.61630   0.70630   0.83870   Biso      1.000     O          -0.570509           
         O7        1.0000    0.83870   0.61630   0.70630   Biso      1.000     O          -0.570511           
         O8        1.0000    0.83870   0.70630   0.83870   Biso      1.000     O          -0.570511           
         O9        1.0000    0.61630   0.83870   0.70630   Biso      1.000     O          -0.570508           
         O10       1.0000    0.70630   0.83870   0.61630   Biso      1.000     O          -0.570509           
         O11       1.0000    0.83870   0.61630   0.83870   Biso      1.000     O          -0.57051  
         O12       1.0000    0.83870   0.83870   0.61630   Biso      1.000     O          -0.570509           
         O13       1.0000    0.16130   0.38370   0.29370   Biso      1.000     O          -0.570511           
         O14       1.0000    0.83870   0.83870   0.70630   Biso      1.000     O          -0.570508           
         O15       1.0000    0.83870   0.70630   0.61630   Biso      1.000     O          -0.570511           
         O16       1.0000    0.16130   0.29370   0.38370   Biso      1.000     O          -0.570511           
         O17       1.0000    0.70630   0.83870   0.83870   Biso      1.000     O          -0.570511           
         O18       1.0000    0.29370   0.16130   0.16130   Biso      1.000     O          -0.570511           
         O19       1.0000    0.16130   0.16130   0.38370   Biso      1.000     O          -0.570509           
         O20       1.0000    0.16130   0.16130   0.29370   Biso      1.000     O          -0.570508           
         O21       1.0000    0.38370   0.29370   0.16130   Biso      1.000     O          -0.570511           
         O22       1.0000    0.29370   0.38370   0.16130   Biso      1.000     O          -0.570511           
         O23       1.0000    0.75000   0.75000   0.75000   Biso      1.000     O          -1.031444           
         O24       1.0000    0.25000   0.25000   0.25000   Biso      1.000     O          -1.031444           
         O25       1.0000    0.61630   0.83870   0.83870   Biso      1.000     O          -0.57051  
         O26       1.0000    0.38370   0.16130   0.16130   Biso      1.000     O          -0.57051  
         Zn1       1.0000    0.34825   0.21725   0.21725   Biso      1.000     Zn          0.971357  
         Zn2       1.0000    0.21725   0.21725   0.21725   Biso      1.000     Zn          0.971358  
         Zn3       1.0000    0.21725   0.21725   0.34825   Biso      1.000     Zn          0.971358  
         Zn4       1.0000    0.78275   0.78275   0.65175   Biso      1.000     Zn          0.971358  
         Zn5       1.0000    0.78275   0.65175   0.78275   Biso      1.000     Zn          0.971357  
         Zn6       1.0000    0.78275   0.78275   0.78275   Biso      1.000     Zn          0.971359  
         Zn7       1.0000    0.65175   0.78275   0.78275   Biso      1.000     Zn          0.971357  
         Zn8       1.0000    0.21725   0.34825   0.21725   Biso      1.000     Zn          0.971357 