
##########################################################################
#               Crystallographic Information Format file
#               Produced by PyCifRW module
#
#  This is a CIF file.  CIF has been adopted by the International
#  Union of Crystallography as the standard for data archiving and
#  transmission.
#
#  For information on this file format, follow the CIF links at
#  http://www.iucr.org
##########################################################################

data_image0

_cell_length_a                          9.1686
_cell_length_b                          11.1145
_cell_length_c                          11.1899
_cell_angle_alpha                       77.156
_cell_angle_beta                        68.195
_cell_angle_gamma                       78.35
_symmetry_space_group_name_H-M          'P 1'
_symmetry_int_tables_number             1
loop_
  _symmetry_equiv_pos_as_xyz
         'x, y, z' 
loop_
  _atom_site_label
  _atom_site_occupancy
  _atom_site_fract_x
  _atom_site_fract_y
  _atom_site_fract_z
  _atom_site_thermal_displace_type
  _atom_site_B_iso_or_equiv
  _atom_site_type_symbol
  _atom_site_charge
         C1        1.0000    0.91590   0.20010   0.30270   Biso      1.000     C          -0.402034           
         C2        1.0000    0.71390   0.45960   0.98020   Biso      1.000     C          -0.23313000000000003          
         C3        1.0000    0.28610   0.54040   0.01980   Biso      1.000     C          -0.23351599999999997          
         C4        1.0000    0.91350   0.01440   0.51770   Biso      1.000     C          -0.224127           
         C5        1.0000    0.43890   0.42790   0.73270   Biso      1.000     C          0.691583  
         C6        1.0000    0.70610   0.60200   0.15290   Biso      1.000     C          -0.407989           
         C7        1.0000    0.11480   0.60060   0.05140   Biso      1.000     C          -0.2454   
         C8        1.0000    0.84550   0.30760   0.38200   Biso      1.000     C          0.623785  
         C9        1.0000    0.88520   0.39940   0.94860   Biso      1.000     C          -0.24522  
         C10       1.0000    0.29390   0.39800   0.84710   Biso      1.000     C          -0.408686           
         C11       1.0000    0.15450   0.69240   0.61800   Biso      1.000     C          0.624783  
         C12       1.0000    0.10340   0.75830   0.21720   Biso      1.000     C          -0.395803           
         C13       1.0000    0.08410   0.79990   0.69730   Biso      1.000     C          -0.404575           
         C14       1.0000    0.89660   0.24170   0.78280   Biso      1.000     C          -0.39615700000000004          
         C15       1.0000    0.00550   0.67360   0.33190   Biso      1.000     C          0.6904    
         C16       1.0000    0.99450   0.32640   0.66810   Biso      1.000     C          0.689547  
         C17       1.0000    0.08650   0.98560   0.48230   Biso      1.000     C          -0.228541           
         C18       1.0000    0.56110   0.57210   0.26730   Biso      1.000     C          0.691787  
         Eu1       1.0000    0.72641   0.51635   0.52012   Biso      1.000     Eu          1.3936110000000002  
         Eu2       1.0000    0.27359   0.48365   0.47988   Biso      1.000     Eu          1.3944370000000001  
         H1        1.0000    0.92260   0.40930   0.01590   Biso      1.000     H          0.12476500000000001           
         H2        1.0000    0.92280   0.15790   0.76240   Biso      1.000     H          0.155281  
         H3        1.0000    0.78560   0.26820   0.79350   Biso      1.000     H          0.163958  
         H4        1.0000    0.64920   0.41540   0.06170   Biso      1.000     H          0.128815  
         H5        1.0000    0.73510   0.67820   0.16110   Biso      1.000     H          0.171993  
         H6        1.0000    0.79190   0.53620   0.15860   Biso      1.000     H          0.163374  
         H7        1.0000    0.97000   0.81150   0.71870   Biso      1.000     H          0.149543  
         H8        1.0000    0.10490   0.77440   0.77880   Biso      1.000     H          0.162746  
         H9        1.0000    0.94800   0.44460   0.86700   Biso      1.000     H          0.138928  
         H10       1.0000    0.67570   0.45320   0.91210   Biso      1.000     H          0.14172200000000001           
         H11       1.0000    0.86500   0.94280   0.57420   Biso      1.000     H          0.137459  
         H12       1.0000    0.87680   0.08320   0.56650   Biso      1.000     H          0.13389600000000002           
         H13       1.0000    0.21440   0.73180   0.20650   Biso      1.000     H          0.163998  
         H14       1.0000    0.07720   0.84210   0.23760   Biso      1.000     H          0.15478699999999998           
         H15       1.0000    0.05200   0.55540   0.13300   Biso      1.000     H          0.139183  
         H16       1.0000    0.07740   0.59070   0.98410   Biso      1.000     H          0.12496199999999999           
         H17       1.0000    0.12320   0.91680   0.43350   Biso      1.000     H          0.136062  
         H18       1.0000    0.35080   0.58460   0.93830   Biso      1.000     H          0.129529  
         H19       1.0000    0.26490   0.32180   0.83890   Biso      1.000     H          0.172197  
         H20       1.0000    0.32430   0.54680   0.08790   Biso      1.000     H          0.14235699999999998           
         H21       1.0000    0.89510   0.22560   0.22120   Biso      1.000     H          0.162617  
         H22       1.0000    0.20810   0.46380   0.84140   Biso      1.000     H          0.163499  
         H23       1.0000    0.03000   0.18850   0.28130   Biso      1.000     H          0.147067  
         H24       1.0000    0.13500   0.05720   0.42580   Biso      1.000     H          0.138712  
         O1        1.0000    0.91310   0.40550   0.33670   Biso      1.000     O          -0.578875           
         O2        1.0000    0.43210   0.56850   0.25510   Biso      1.000     O          -0.627954           
         O3        1.0000    0.92790   0.39500   0.59430   Biso      1.000     O          -0.581951           
         O4        1.0000    0.56790   0.43150   0.74490   Biso      1.000     O          -0.627124           
         O5        1.0000    0.27080   0.70140   0.51480   Biso      1.000     O          -0.580345           
         O6        1.0000    0.57410   0.54680   0.37850   Biso      1.000     O          -0.60241  
         O7        1.0000    0.42590   0.45320   0.62150   Biso      1.000     O          -0.603124           
         O8        1.0000    0.72920   0.29860   0.48520   Biso      1.000     O          -0.574859           
         O9        1.0000    0.08690   0.59450   0.66330   Biso      1.000     O          -0.578279           
         O10       1.0000    0.13810   0.32560   0.65110   Biso      1.000     O          -0.633575           
         O11       1.0000    0.86190   0.67440   0.34890   Biso      1.000     O          -0.634154           
         O12       1.0000    0.07210   0.60500   0.40570   Biso      1.000     O          -0.583847           
         S1        1.0000    0.07780   0.76299   0.06503   Biso      1.000     S          0.10339200000000001           
         S2        1.0000    0.84850   0.05550   0.37540   Biso      1.000     S          0.09119   
         S3        1.0000    0.92220   0.23701   0.93497   Biso      1.000     S          0.100281  
         S4        1.0000    0.69410   0.62080   0.99382   Biso      1.000     S          0.13143   
         S5        1.0000    0.30590   0.37920   0.00618   Biso      1.000     S          0.138739  
         S6        1.0000    0.15150   0.94450   0.62460   Biso      1.000     S          0.11925999999999999 