
##########################################################################
#               Crystallographic Information Format file
#               Produced by PyCifRW module
#
#  This is a CIF file.  CIF has been adopted by the International
#  Union of Crystallography as the standard for data archiving and
#  transmission.
#
#  For information on this file format, follow the CIF links at
#  http://www.iucr.org
##########################################################################

data_image0

_cell_length_a                          16.9981
_cell_length_b                          16.9981
_cell_length_c                          17.12
_cell_angle_alpha                       95.4935
_cell_angle_beta                        95.4935
_cell_angle_gamma                       95.768
_symmetry_space_group_name_H-M          'P 1'
_symmetry_int_tables_number             1
loop_
  _symmetry_equiv_pos_as_xyz
         'x, y, z' 
loop_
  _atom_site_label
  _atom_site_occupancy
  _atom_site_fract_x
  _atom_site_fract_y
  _atom_site_fract_z
  _atom_site_thermal_displace_type
  _atom_site_B_iso_or_equiv
  _atom_site_type_symbol
  _atom_site_charge
         C1        1.0000    0.15719   0.14677   0.71596   Biso      1.000     C          0.080884  
         C2        1.0000    0.86083   0.85062   0.03201   Biso      1.000     C          -0.049696           
         C3        1.0000    0.85763   0.85334   0.94477   Biso      1.000     C          0.610396  
         C4        1.0000    0.87562   0.77804   0.40451   Biso      1.000     C          -0.09087100000000001          
         C5        1.0000    0.88019   0.77988   0.32318   Biso      1.000     C          -0.135191           
         C6        1.0000    0.88944   0.91763   0.08560   Biso      1.000     C          -0.083011           
         C7        1.0000    0.88697   0.91482   0.16721   Biso      1.000     C          -0.129848           
         C8        1.0000    0.83171   0.77718   0.14403   Biso      1.000     C          -0.13805499999999998          
         C9        1.0000    0.83237   0.78029   0.06250   Biso      1.000     C          -0.09562899999999999          
         C10       1.0000    0.84020   0.64422   0.73262   Biso      1.000     C          0.6043470000000001  
         C11       1.0000    0.82001   0.43698   0.80051   Biso      1.000     C          -0.139902           
         C12       1.0000    0.81364   0.51815   0.79645   Biso      1.000     C          -0.081215           
         C13       1.0000    0.84262   0.55706   0.73430   Biso      1.000     C          -0.044362           
         C14       1.0000    0.87746   0.51255   0.67597   Biso      1.000     C          -0.080743           
         C15       1.0000    0.88257   0.43114   0.67934   Biso      1.000     C          -0.145603           
         C16       1.0000    0.85428   0.39247   0.74185   Biso      1.000     C          0.079466  
         C17       1.0000    0.88487   0.27441   0.81413   Biso      1.000     C          -0.139322           
         C18       1.0000    0.85805   0.30549   0.74423   Biso      1.000     C          0.079825  
         C19       1.0000    0.85788   0.84481   0.19741   Biso      1.000     C          0.07587200000000001           
         C20       1.0000    0.85323   0.84281   0.28404   Biso      1.000     C          0.080884  
         C21       1.0000    0.84260   0.83832   0.44865   Biso      1.000     C          -0.048320999999999996         
         C22       1.0000    0.84047   0.83812   0.53578   Biso      1.000     C          0.612438  
         C23       1.0000    0.13588   0.94907   0.25044   Biso      1.000     C          0.609312  
         C24       1.0000    0.13070   0.86122   0.25195   Biso      1.000     C          -0.043396           
         C25       1.0000    0.16240   0.82983   0.31983   Biso      1.000     C          -0.082173           
         C26       1.0000    0.16255   0.74782   0.32176   Biso      1.000     C          -0.139808           
         C27       1.0000    0.13211   0.69466   0.25547   Biso      1.000     C          0.077279  
         C28       1.0000    0.16168   0.15740   0.55135   Biso      1.000     C          -0.048320999999999996         
         C29       1.0000    0.16188   0.15953   0.46422   Biso      1.000     C          0.612438  
         C30       1.0000    0.09911   0.72556   0.18775   Biso      1.000     C          -0.14396099999999998          
         C31       1.0000    0.83321   0.25260   0.67625   Biso      1.000     C          -0.14236  
         C32       1.0000    0.09752   0.80803   0.18632   Biso      1.000     C          -0.083011           
         C33       1.0000    0.11476   0.56947   0.32246   Biso      1.000     C          -0.142873           
         C34       1.0000    0.12200   0.48841   0.32589   Biso      1.000     C          -0.085832           
         C35       1.0000    0.15519   0.14212   0.80259   Biso      1.000     C          0.07587200000000001           
         C36       1.0000    0.15307   0.44370   0.26493   Biso      1.000     C          -0.043782           
         C37       1.0000    0.17585   0.48210   0.19998   Biso      1.000     C          -0.08631  
         C38       1.0000    0.16723   0.56295   0.19591   Biso      1.000     C          -0.13678800000000002          
         C39       1.0000    0.15756   0.35677   0.26711   Biso      1.000     C          0.608449  
         C40       1.0000    0.09652   0.17907   0.67180   Biso      1.000     C          -0.134046           
         C41       1.0000    0.13698   0.60768   0.25732   Biso      1.000     C          0.076399  
         C42       1.0000    0.83325   0.17060   0.67838   Biso      1.000     C          -0.083607           
         C43       1.0000    0.88631   0.19207   0.81591   Biso      1.000     C          -0.08758400000000001          
         C44       1.0000    0.85605   0.05150   0.74930   Biso      1.000     C          0.607545  
         C45       1.0000    0.69451   0.14195   0.25577   Biso      1.000     C          0.079825  
         C46       1.0000    0.85929   0.13916   0.74825   Biso      1.000     C          -0.050214           
         C47       1.0000    0.80793   0.11369   0.18409   Biso      1.000     C          -0.08758400000000001          
         C48       1.0000    0.60753   0.14572   0.25815   Biso      1.000     C          0.079466  
         C49       1.0000    0.56886   0.11743   0.32066   Biso      1.000     C          -0.145602           
         C50       1.0000    0.48745   0.12254   0.32403   Biso      1.000     C          -0.08074400000000001          
         C51       1.0000    0.44294   0.15738   0.26570   Biso      1.000     C          -0.044362           
         C52       1.0000    0.48185   0.18636   0.20355   Biso      1.000     C          -0.081215           
         C53       1.0000    0.74740   0.16679   0.32375   Biso      1.000     C          -0.14235899999999999          
         C54       1.0000    0.56302   0.17999   0.19949   Biso      1.000     C          -0.139902           
         C55       1.0000    0.21971   0.16763   0.93750   Biso      1.000     C          -0.09562899999999999          
         C56       1.0000    0.22282   0.16829   0.85597   Biso      1.000     C          -0.13805499999999998          
         C57       1.0000    0.08518   0.11303   0.83279   Biso      1.000     C          -0.129847           
         C58       1.0000    0.08237   0.11056   0.91440   Biso      1.000     C          -0.083012           
         C59       1.0000    0.22012   0.11981   0.67682   Biso      1.000     C          -0.135191           
         C60       1.0000    0.22196   0.12438   0.59549   Biso      1.000     C          -0.09087100000000001          
         C61       1.0000    0.14666   0.14237   0.05523   Biso      1.000     C          0.6103970000000001  
         C62       1.0000    0.14938   0.13917   0.96799   Biso      1.000     C          -0.049696           
         C63       1.0000    0.35578   0.15980   0.26738   Biso      1.000     C          0.604346  
         C64       1.0000    0.82940   0.16675   0.32162   Biso      1.000     C          -0.083607           
         C65       1.0000    0.72559   0.11513   0.18587   Biso      1.000     C          -0.139322           
         C66       1.0000    0.94850   0.14395   0.25070   Biso      1.000     C          0.607545  
         C67       1.0000    0.81502   0.90090   0.40921   Biso      1.000     C          -0.088283           
         C68       1.0000    0.82093   0.90348   0.32820   Biso      1.000     C          -0.134046           
         C69       1.0000    0.64323   0.84244   0.73289   Biso      1.000     C          0.60845   
         C70       1.0000    0.43705   0.83277   0.80409   Biso      1.000     C          -0.13678800000000002          
         C71       1.0000    0.86084   0.14071   0.25175   Biso      1.000     C          -0.050214           
         C72       1.0000    0.55630   0.84693   0.73507   Biso      1.000     C          -0.043782           
         C73       1.0000    0.51159   0.87800   0.67411   Biso      1.000     C          -0.085832           
         C74       1.0000    0.43053   0.88524   0.67754   Biso      1.000     C          -0.142873           
         C75       1.0000    0.51790   0.82415   0.80002   Biso      1.000     C          -0.08631  
         C76       1.0000    0.19197   0.90248   0.81368   Biso      1.000     C          -0.083011           
         C77       1.0000    0.39232   0.86302   0.74268   Biso      1.000     C          0.076399  
         C78       1.0000    0.05093   0.86412   0.74956   Biso      1.000     C          0.609313  
         C79       1.0000    0.13878   0.86930   0.74805   Biso      1.000     C          -0.043396           
         C80       1.0000    0.09910   0.18498   0.59079   Biso      1.000     C          -0.088283           
         C81       1.0000    0.25218   0.83745   0.67824   Biso      1.000     C          -0.139808           
         C82       1.0000    0.30534   0.86789   0.74453   Biso      1.000     C          0.077279  
         C83       1.0000    0.27444   0.90089   0.81225   Biso      1.000     C          -0.14396099999999998          
         C84       1.0000    0.17017   0.83760   0.68017   Biso      1.000     C          -0.082173           
         H1        1.0000    0.68610   0.09497   0.13274   Biso      1.000     H          0.110051  
         H2        1.0000    0.27076   0.10208   0.56713   Biso      1.000     H          0.112748  
         H3        1.0000    0.26733   0.09397   0.70900   Biso      1.000     H          0.105304  
         H4        1.0000    0.59137   0.20302   0.15108   Biso      1.000     H          0.10575999999999999           
         H5        1.0000    0.44925   0.21290   0.15728   Biso      1.000     H          0.111954  
         H6        1.0000    0.45935   0.09932   0.37249   Biso      1.000     H          0.113974  
         H7        1.0000    0.60155   0.09044   0.36655   Biso      1.000     H          0.10831600000000001           
         H8        1.0000    0.83028   0.09311   0.12949   Biso      1.000     H          0.113792  
         H9        1.0000    0.72537   0.18811   0.37831   Biso      1.000     H          0.107425  
         H10       1.0000    0.02731   0.08818   0.93564   Biso      1.000     H          0.114399  
         H11       1.0000    0.05125   0.21000   0.55872   Biso      1.000     H          0.10941   
         H12       1.0000    0.79698   0.40863   0.84892   Biso      1.000     H          0.10575999999999999           
         H13       1.0000    0.78710   0.55075   0.84272   Biso      1.000     H          0.111954  
         H14       1.0000    0.90068   0.54065   0.62751   Biso      1.000     H          0.113974  
         H15       1.0000    0.90956   0.39845   0.63345   Biso      1.000     H          0.10831700000000001           
         H16       1.0000    0.90689   0.16972   0.87051   Biso      1.000     H          0.113792  
         H17       1.0000    0.90503   0.31390   0.86726   Biso      1.000     H          0.110051  
         H18       1.0000    0.81189   0.27463   0.62169   Biso      1.000     H          0.107425  
         H19       1.0000    0.81268   0.13162   0.62498   Biso      1.000     H          0.11351800000000001           
         H20       1.0000    0.79000   0.94875   0.44128   Biso      1.000     H          0.10941   
         H21       1.0000    0.79928   0.95256   0.29976   Biso      1.000     H          0.104395  
         H22       1.0000    0.40906   0.81440   0.85462   Biso      1.000     H          0.106332  
         H23       1.0000    0.55067   0.80076   0.84835   Biso      1.000     H          0.115347  
         H24       1.0000    0.53925   0.89649   0.62344   Biso      1.000     H          0.113946  
         H25       1.0000    0.39769   0.90895   0.62943   Biso      1.000     H          0.106582  
         H26       1.0000    0.16976   0.92770   0.86668   Biso      1.000     H          0.11598   
         H27       1.0000    0.31414   0.92550   0.86398   Biso      1.000     H          0.106898  
         H28       1.0000    0.27401   0.81140   0.62538   Biso      1.000     H          0.104854  
         H29       1.0000    0.13111   0.81220   0.62825   Biso      1.000     H          0.112974  
         H30       1.0000    0.91182   0.97269   0.06436   Biso      1.000     H          0.114399  
         H31       1.0000    0.27266   0.18965   0.97690   Biso      1.000     H          0.110008  
         H32       1.0000    0.27765   0.19130   0.83472   Biso      1.000     H          0.10428299999999999           
         H33       1.0000    0.90603   0.73267   0.29100   Biso      1.000     H          0.105304  
         H34       1.0000    0.86838   0.18732   0.37502   Biso      1.000     H          0.11351800000000001           
         H35       1.0000    0.89792   0.72924   0.43287   Biso      1.000     H          0.112748  
         H36       1.0000    0.81035   0.72734   0.02310   Biso      1.000     H          0.110008  
         H37       1.0000    0.04744   0.20072   0.70024   Biso      1.000     H          0.104395  
         H38       1.0000    0.18560   0.59094   0.14538   Biso      1.000     H          0.106332  
         H39       1.0000    0.19924   0.44933   0.15165   Biso      1.000     H          0.115347  
         H40       1.0000    0.10351   0.46075   0.37656   Biso      1.000     H          0.113946  
         H41       1.0000    0.09105   0.60231   0.37057   Biso      1.000     H          0.106582  
         H42       1.0000    0.07230   0.83024   0.13332   Biso      1.000     H          0.11598   
         H43       1.0000    0.07450   0.68586   0.13602   Biso      1.000     H          0.106898  
         H44       1.0000    0.18860   0.72599   0.37462   Biso      1.000     H          0.104854  
         H45       1.0000    0.90792   0.96714   0.20737   Biso      1.000     H          0.10457999999999999           
         H46       1.0000    0.80870   0.72235   0.16528   Biso      1.000     H          0.10428299999999999           
         H47       1.0000    0.18780   0.86889   0.37175   Biso      1.000     H          0.112974  
         H48       1.0000    0.03286   0.09208   0.79263   Biso      1.000     H          0.10457999999999999           
         O1        1.0000    0.11716   0.20303   0.42808   Biso      1.000     O          -0.5618850000000001           
         O2        1.0000    0.09036   0.98018   0.20130   Biso      1.000     O          -0.557017           
         O3        1.0000    0.18696   0.99206   0.29974   Biso      1.000     O          -0.555917           
         O4        1.0000    0.20119   0.32069   0.22237   Biso      1.000     O          -0.557239           
         O5        1.0000    0.31804   0.11427   0.30925   Biso      1.000     O          -0.5549890000000001           
         O6        1.0000    0.20494   0.11583   0.42636   Biso      1.000     O          -0.562137           
         O7        1.0000    0.99249   0.19104   0.30279   Biso      1.000     O          -0.551056           
         O8        1.0000    0.31969   0.20541   0.22510   Biso      1.000     O          -0.555588           
         O9        1.0000    0.11559   0.31921   0.31218   Biso      1.000     O          -0.5581079999999999           
         O10       1.0000    0.15173   0.15282   0.25920   Biso      1.000     O          -1.072884           
         O11       1.0000    0.97844   0.09993   0.19946   Biso      1.000     O          -0.556103           
         O12       1.0000    0.80771   0.80401   0.90039   Biso      1.000     O          -0.558567           
         O13       1.0000    0.90384   0.90376   0.91540   Biso      1.000     O          -0.56043  
         O14       1.0000    0.84718   0.84827   0.74080   Biso      1.000     O          -1.072885           
         O15       1.0000    0.79697   0.88284   0.57192   Biso      1.000     O          -0.5618850000000001           
         O16       1.0000    0.68079   0.88441   0.68782   Biso      1.000     O          -0.5581079999999999           
         O17       1.0000    0.79459   0.68031   0.77490   Biso      1.000     O          -0.5555899999999999           
         O18       1.0000    0.80896   0.00751   0.69721   Biso      1.000     O          -0.551056           
         O19       1.0000    0.90007   0.02156   0.80054   Biso      1.000     O          -0.556104           
         O20       1.0000    0.88417   0.79506   0.57364   Biso      1.000     O          -0.562137           
         O21       1.0000    0.88573   0.68196   0.69075   Biso      1.000     O          -0.5549890000000001           
         O22       1.0000    0.67931   0.79881   0.77763   Biso      1.000     O          -0.557238           
         O23       1.0000    0.00794   0.81304   0.70026   Biso      1.000     O          -0.555917           
         O24       1.0000    0.01982   0.90964   0.79870   Biso      1.000     O          -0.557017           
         O25       1.0000    0.09624   0.09616   0.08460   Biso      1.000     O          -0.56043  
         O26       1.0000    0.19599   0.19229   0.09961   Biso      1.000     O          -0.558567           
         Zn1       1.0000    0.90334   0.78615   0.67814   Biso      1.000     Zn          0.996159  
         Zn2       1.0000    0.09740   0.21485   0.32408   Biso      1.000     Zn          0.994791  
         Zn3       1.0000    0.21385   0.09666   0.32186   Biso      1.000     Zn          0.996159  
         Zn4       1.0000    0.78356   0.78465   0.79549   Biso      1.000     Zn          0.9951190000000001  
         Zn5       1.0000    0.91548   0.91865   0.81228   Biso      1.000     Zn          0.996604  
         Zn6       1.0000    0.78515   0.90260   0.67592   Biso      1.000     Zn          0.994791  
         Zn7       1.0000    0.08135   0.08452   0.18772   Biso      1.000     Zn          0.996604  
         Zn8       1.0000    0.21535   0.21644   0.20451   Biso      1.000     Zn          0.9951180000000001 