
##########################################################################
#               Crystallographic Information Format file
#               Produced by PyCifRW module
#
#  This is a CIF file.  CIF has been adopted by the International
#  Union of Crystallography as the standard for data archiving and
#  transmission.
#
#  For information on this file format, follow the CIF links at
#  http://www.iucr.org
##########################################################################

data_image0

_cell_length_a                          6.6218
_cell_length_b                          16.2148
_cell_length_c                          13.5886
_cell_angle_alpha                       90
_cell_angle_beta                        90
_cell_angle_gamma                       90
_symmetry_space_group_name_H-M          'P 1'
_symmetry_int_tables_number             1
loop_
  _symmetry_equiv_pos_as_xyz
         'x, y, z' 
loop_
  _atom_site_label
  _atom_site_occupancy
  _atom_site_fract_x
  _atom_site_fract_y
  _atom_site_fract_z
  _atom_site_thermal_displace_type
  _atom_site_B_iso_or_equiv
  _atom_site_type_symbol
  _atom_site_charge
         Al1       1.0000    0.24601   0.75185   0.25188   Biso      1.000     Al          1.730389  
         Al2       1.0000    0.24389   0.25169   0.75134   Biso      1.000     Al          1.727888  
         Al3       1.0000    0.74409   0.25175   0.75206   Biso      1.000     Al          1.7292869999999998  
         Al4       1.0000    0.74585   0.75182   0.25153   Biso      1.000     Al          1.7289759999999998  
         C1        1.0000    0.31346   0.46700   0.53273   Biso      1.000     C          -0.09683  
         C2        1.0000    0.49444   0.36024   0.63793   Biso      1.000     C          0.636588  
         C3        1.0000    0.49502   0.43188   0.56694   Biso      1.000     C          -0.033001           
         C4        1.0000    0.17786   0.96695   0.03264   Biso      1.000     C          -0.097845           
         C5        1.0000    0.99656   0.86012   0.13765   Biso      1.000     C          0.636495  
         C6        1.0000    0.99625   0.93167   0.06659   Biso      1.000     C          -0.033414           
         C7        1.0000    0.81356   0.03438   0.96783   Biso      1.000     C          -0.09805499999999999          
         C8        1.0000    0.31427   0.96732   0.46981   Biso      1.000     C          -0.09668  
         C9        1.0000    0.81435   0.53577   0.03441   Biso      1.000     C          -0.09844299999999999          
         C10       1.0000    0.31375   0.03573   0.53383   Biso      1.000     C          -0.098237           
         C11       1.0000    0.67773   0.53460   0.46811   Biso      1.000     C          -0.09800700000000001          
         C12       1.0000    0.81384   0.46766   0.96991   Biso      1.000     C          -0.097137           
         C13       1.0000    0.17728   0.03469   0.96755   Biso      1.000     C          -0.097541           
         C14       1.0000    0.67714   0.46697   0.53339   Biso      1.000     C          -0.09765499999999999          
         C15       1.0000    0.99648   0.64336   0.13781   Biso      1.000     C          0.635637  
         C16       1.0000    0.99639   0.57119   0.06756   Biso      1.000     C          -0.032012           
         C17       1.0000    0.49528   0.07153   0.56703   Biso      1.000     C          -0.03221  
         C18       1.0000    0.31405   0.53464   0.46750   Biso      1.000     C          -0.09866  
         C19       1.0000    0.49649   0.64266   0.36475   Biso      1.000     C          0.635359  
         C20       1.0000    0.49613   0.57017   0.43453   Biso      1.000     C          -0.032755           
         C21       1.0000    0.17751   0.46740   0.96962   Biso      1.000     C          -0.09875700000000001          
         C22       1.0000    0.81416   0.96665   0.03287   Biso      1.000     C          -0.097151           
         C23       1.0000    0.99511   0.07012   0.93451   Biso      1.000     C          -0.032721           
         C24       1.0000    0.67797   0.96756   0.47005   Biso      1.000     C          -0.099082           
         C25       1.0000    0.99449   0.14262   0.86478   Biso      1.000     C          0.63695   
         C26       1.0000    0.49633   0.93181   0.43681   Biso      1.000     C          -0.032637           
         C27       1.0000    0.17802   0.53555   0.03414   Biso      1.000     C          -0.09865399999999999          
         C28       1.0000    0.99456   0.35995   0.86603   Biso      1.000     C          0.6347649999999999  
         C29       1.0000    0.99536   0.43201   0.93645   Biso      1.000     C          -0.032154           
         C30       1.0000    0.67745   0.03601   0.53410   Biso      1.000     C          -0.097926           
         C31       1.0000    0.49452   0.14369   0.63723   Biso      1.000     C          0.6346609999999999  
         C32       1.0000    0.49645   0.85973   0.36646   Biso      1.000     C          0.6356930000000001  
         H1        1.0000    0.82092   0.55909   0.44375   Biso      1.000     H          0.119073  
         H2        1.0000    0.49329   0.25148   0.86792   Biso      1.000     H          0.44668199999999997           
         H3        1.0000    0.32008   0.05940   0.94292   Biso      1.000     H          0.11857100000000001           
         H4        1.0000    0.99328   0.25295   0.63556   Biso      1.000     H          0.44838999999999996           
         H5        1.0000    0.17145   0.94226   0.44575   Biso      1.000     H          0.11856400000000002           
         H6        1.0000    0.49563   0.75467   0.13555   Biso      1.000     H          0.44747700000000007           
         H7        1.0000    0.67064   0.44295   0.94588   Biso      1.000     H          0.11876700000000001           
         H8        1.0000    0.67034   0.05881   0.94342   Biso      1.000     H          0.11891199999999999           
         H9        1.0000    0.17122   0.55915   0.44260   Biso      1.000     H          0.119192  
         H10       1.0000    0.32034   0.44244   0.94536   Biso      1.000     H          0.11947   
         H11       1.0000    0.82117   0.94268   0.44620   Biso      1.000     H          0.119333  
         H12       1.0000    0.32122   0.56036   0.05813   Biso      1.000     H          0.11932999999999999           
         H13       1.0000    0.82025   0.06116   0.55813   Biso      1.000     H          0.119148  
         H14       1.0000    0.67135   0.94166   0.05713   Biso      1.000     H          0.11823299999999999           
         H15       1.0000    0.32106   0.94220   0.05668   Biso      1.000     H          0.118631  
         H16       1.0000    0.17027   0.44223   0.55671   Biso      1.000     H          0.11816099999999999           
         H17       1.0000    0.81992   0.44216   0.55792   Biso      1.000     H          0.11843900000000002           
         H18       1.0000    0.99561   0.75342   0.36783   Biso      1.000     H          0.44659899999999997           
         H19       1.0000    0.17056   0.06060   0.55765   Biso      1.000     H          0.118592  
         H20       1.0000    0.67154   0.56074   0.05862   Biso      1.000     H          0.11885699999999999           
         O1        1.0000    0.99362   0.25219   0.69900   Biso      1.000     O          -1.0505950000000002           
         O2        1.0000    0.16601   0.17184   0.83543   Biso      1.000     O          -0.604232           
         O3        1.0000    0.82251   0.17213   0.83641   Biso      1.000     O          -0.604584           
         O4        1.0000    0.66825   0.67180   0.33554   Biso      1.000     O          -0.6034619999999999           
         O5        1.0000    0.82258   0.33077   0.83719   Biso      1.000     O          -0.604108           
         O6        1.0000    0.32478   0.83063   0.33721   Biso      1.000     O          -0.604276           
         O7        1.0000    0.32472   0.67232   0.33626   Biso      1.000     O          -0.6046189999999999           
         O8        1.0000    0.82463   0.67255   0.16686   Biso      1.000     O          -0.6044149999999999           
         O9        1.0000    0.32248   0.17285   0.66604   Biso      1.000     O          -0.604402           
         O10       1.0000    0.32265   0.33102   0.66679   Biso      1.000     O          -0.604224           
         O11       1.0000    0.16809   0.83140   0.16746   Biso      1.000     O          -0.6038060000000001           
         O12       1.0000    0.16820   0.67251   0.16704   Biso      1.000     O          -0.6046819999999999           
         O13       1.0000    0.66579   0.33132   0.66775   Biso      1.000     O          -0.604557           
         O14       1.0000    0.66801   0.83070   0.33700   Biso      1.000     O          -0.604313           
         O15       1.0000    0.82498   0.83086   0.16671   Biso      1.000     O          -0.604871           
         O16       1.0000    0.49363   0.25163   0.80446   Biso      1.000     O          -1.048507           
         O17       1.0000    0.99578   0.75251   0.30440   Biso      1.000     O          -1.048762           
         O18       1.0000    0.49579   0.75299   0.19897   Biso      1.000     O          -1.050067           
         O19       1.0000    0.66595   0.17272   0.66692   Biso      1.000     O          -0.603429           
         O20       1.0000    0.16590   0.33088   0.83633   Biso      1.000     O          -0.603632 