
##########################################################################
#               Crystallographic Information Format file
#               Produced by PyCifRW module
#
#  This is a CIF file.  CIF has been adopted by the International
#  Union of Crystallography as the standard for data archiving and
#  transmission.
#
#  For information on this file format, follow the CIF links at
#  http://www.iucr.org
##########################################################################

data_image0

_cell_length_a                          18.825
_cell_length_b                          8.3912
_cell_length_c                          9.2901
_cell_angle_alpha                       90
_cell_angle_beta                        94.064
_cell_angle_gamma                       90
_symmetry_space_group_name_H-M          'P 1'
_symmetry_int_tables_number             1
loop_
  _symmetry_equiv_pos_as_xyz
         'x, y, z' 
loop_
  _atom_site_label
  _atom_site_occupancy
  _atom_site_fract_x
  _atom_site_fract_y
  _atom_site_fract_z
  _atom_site_thermal_displace_type
  _atom_site_B_iso_or_equiv
  _atom_site_type_symbol
  _atom_site_charge
         C1        1.0000    0.31034   0.81420   0.95060   Biso      1.000     C          -0.15820399999999998          
         C2        1.0000    0.25035   0.06400   0.86170   Biso      1.000     C          -0.52427  
         C3        1.0000    0.24965   0.43600   0.13830   Biso      1.000     C          -0.52427  
         C4        1.0000    0.25197   0.59700   0.06640   Biso      1.000     C          0.21568600000000002           
         C5        1.0000    0.31369   0.66410   0.01510   Biso      1.000     C          -0.268756           
         C6        1.0000    0.75197   0.90300   0.56640   Biso      1.000     C          0.21568600000000002           
         C7        1.0000    0.81034   0.68580   0.45060   Biso      1.000     C          -0.158203           
         C8        1.0000    0.74965   0.93600   0.13830   Biso      1.000     C          -0.52427  
         C9        1.0000    0.75197   0.09700   0.06640   Biso      1.000     C          0.21568600000000002           
         C10       1.0000    0.81369   0.16410   0.01510   Biso      1.000     C          -0.268757           
         C11       1.0000    0.81034   0.31420   0.95060   Biso      1.000     C          -0.158203           
         C12       1.0000    0.68966   0.18580   0.04940   Biso      1.000     C          -0.158203           
         C13       1.0000    0.68631   0.33590   0.98490   Biso      1.000     C          -0.268758           
         C14       1.0000    0.74803   0.40300   0.93360   Biso      1.000     C          0.21568800000000002           
         C15       1.0000    0.24965   0.56400   0.63830   Biso      1.000     C          -0.52427  
         C16       1.0000    0.25197   0.40300   0.56640   Biso      1.000     C          0.21568600000000002           
         C17       1.0000    0.31369   0.33590   0.51510   Biso      1.000     C          -0.268758           
         C18       1.0000    0.31034   0.18580   0.45060   Biso      1.000     C          -0.15820399999999998          
         C19       1.0000    0.75035   0.56400   0.86170   Biso      1.000     C          -0.52427  
         C20       1.0000    0.74965   0.06400   0.63830   Biso      1.000     C          -0.52427  
         C21       1.0000    0.18966   0.31420   0.54940   Biso      1.000     C          -0.158202           
         C22       1.0000    0.18631   0.16410   0.48490   Biso      1.000     C          -0.268758           
         C23       1.0000    0.81369   0.83590   0.51510   Biso      1.000     C          -0.268756           
         C24       1.0000    0.68966   0.81420   0.54940   Biso      1.000     C          -0.158203           
         C25       1.0000    0.74803   0.59700   0.43360   Biso      1.000     C          0.215687  
         C26       1.0000    0.18966   0.68580   0.04940   Biso      1.000     C          -0.158202           
         C27       1.0000    0.18631   0.83590   0.98490   Biso      1.000     C          -0.268757           
         C28       1.0000    0.24803   0.90300   0.93360   Biso      1.000     C          0.21568800000000002           
         C29       1.0000    0.68631   0.66410   0.48490   Biso      1.000     C          -0.268757           
         C30       1.0000    0.75035   0.43600   0.36170   Biso      1.000     C          -0.52427  
         C31       1.0000    0.25035   0.93600   0.36170   Biso      1.000     C          -0.52427  
         C32       1.0000    0.24803   0.09700   0.43360   Biso      1.000     C          0.21568800000000002           
         H1        1.0000    0.35180   0.14320   0.41740   Biso      1.000     H          0.116675  
         H2        1.0000    0.85180   0.35680   0.91740   Biso      1.000     H          0.116675  
         H3        1.0000    0.76460   0.14460   0.57350   Biso      1.000     H          0.170031  
         H4        1.0000    0.73540   0.35540   0.42650   Biso      1.000     H          0.170031  
         H5        1.0000    0.78100   0.06400   0.72450   Biso      1.000     H          0.163806  
         H6        1.0000    0.39330   0.58420   0.34780   Biso      1.000     H          0.43952700000000006           
         H7        1.0000    0.71900   0.43600   0.27550   Biso      1.000     H          0.163806  
         H8        1.0000    0.70190   0.08600   0.66270   Biso      1.000     H          0.170422  
         H9        1.0000    0.79810   0.41400   0.33730   Biso      1.000     H          0.170422  
         H10       1.0000    0.20190   0.58600   0.66270   Biso      1.000     H          0.170422  
         H11       1.0000    0.28100   0.56400   0.72450   Biso      1.000     H          0.163806  
         H12       1.0000    0.89330   0.08420   0.34780   Biso      1.000     H          0.43952700000000006           
         H13       1.0000    0.79810   0.58600   0.83730   Biso      1.000     H          0.170422  
         H14       1.0000    0.71900   0.56400   0.77550   Biso      1.000     H          0.163806  
         H15       1.0000    0.14820   0.64320   0.08260   Biso      1.000     H          0.116675  
         H16       1.0000    0.60670   0.41580   0.65220   Biso      1.000     H          0.439528  
         H17       1.0000    0.73540   0.64460   0.92650   Biso      1.000     H          0.170031  
         H18       1.0000    0.26460   0.64460   0.57350   Biso      1.000     H          0.170031  
         H19       1.0000    0.23540   0.85540   0.42650   Biso      1.000     H          0.170031  
         H20       1.0000    0.76460   0.85540   0.07350   Biso      1.000     H          0.170031  
         H21       1.0000    0.21900   0.93600   0.27550   Biso      1.000     H          0.163806  
         H22       1.0000    0.14820   0.35680   0.58260   Biso      1.000     H          0.116674  
         H23       1.0000    0.21900   0.06400   0.77550   Biso      1.000     H          0.163806  
         H24       1.0000    0.29810   0.08600   0.83730   Biso      1.000     H          0.170422  
         H25       1.0000    0.29810   0.91400   0.33730   Biso      1.000     H          0.170422  
         H26       1.0000    0.39330   0.41580   0.84780   Biso      1.000     H          0.439528  
         H27       1.0000    0.10670   0.08420   0.15220   Biso      1.000     H          0.43952700000000006           
         H28       1.0000    0.20190   0.41400   0.16270   Biso      1.000     H          0.170422  
         H29       1.0000    0.64820   0.85680   0.58260   Biso      1.000     H          0.116675  
         H30       1.0000    0.26460   0.35540   0.07350   Biso      1.000     H          0.170031  
         H31       1.0000    0.28100   0.43600   0.22450   Biso      1.000     H          0.163806  
         H32       1.0000    0.10670   0.91580   0.65220   Biso      1.000     H          0.43952700000000006           
         H33       1.0000    0.35180   0.85680   0.91740   Biso      1.000     H          0.116675  
         H34       1.0000    0.60670   0.58420   0.15220   Biso      1.000     H          0.43952700000000006           
         H35       1.0000    0.85180   0.64320   0.41740   Biso      1.000     H          0.116674  
         H36       1.0000    0.89330   0.91580   0.84780   Biso      1.000     H          0.439528  
         H37       1.0000    0.64820   0.14320   0.08260   Biso      1.000     H          0.116675  
         H38       1.0000    0.70190   0.91400   0.16270   Biso      1.000     H          0.170422  
         H39       1.0000    0.78100   0.93600   0.22450   Biso      1.000     H          0.163806  
         H40       1.0000    0.23540   0.14460   0.92650   Biso      1.000     H          0.170031  
         Mn1       1.0000    0.50000   0.33867   0.25000   Biso      1.000     Mn          1.1717799999999998  
         Mn2       1.0000    0.00000   0.83867   0.25000   Biso      1.000     Mn          1.171778  
         Mn3       1.0000    0.50000   0.66133   0.75000   Biso      1.000     Mn          1.1717799999999998  
         Mn4       1.0000    0.00000   0.16133   0.75000   Biso      1.000     Mn          1.171778  
         O1        1.0000    0.11634   0.09830   0.06840   Biso      1.000     O          -0.697854           
         O2        1.0000    0.04913   0.83650   0.04950   Biso      1.000     O          -0.785044           
         O3        1.0000    0.08045   0.98890   0.82625   Biso      1.000     O          -0.7734409999999999           
         O4        1.0000    0.61634   0.59830   0.06840   Biso      1.000     O          -0.697854           
         O5        1.0000    0.58045   0.51110   0.32625   Biso      1.000     O          -0.773443           
         O6        1.0000    0.58045   0.48890   0.82625   Biso      1.000     O          -0.773443           
         O7        1.0000    0.54913   0.66350   0.54950   Biso      1.000     O          -0.785046           
         O8        1.0000    0.61634   0.40170   0.56840   Biso      1.000     O          -0.697855           
         O9        1.0000    0.08045   0.01110   0.32625   Biso      1.000     O          -0.7734409999999999           
         O10       1.0000    0.04913   0.16350   0.54950   Biso      1.000     O          -0.785044           
         O11       1.0000    0.11634   0.90170   0.56840   Biso      1.000     O          -0.697854           
         O12       1.0000    0.41955   0.51110   0.17375   Biso      1.000     O          -0.773442           
         O13       1.0000    0.45087   0.66350   0.95050   Biso      1.000     O          -0.785046           
         O14       1.0000    0.38366   0.40170   0.93160   Biso      1.000     O          -0.697854           
         O15       1.0000    0.54913   0.33650   0.04950   Biso      1.000     O          -0.785046           
         O16       1.0000    0.91955   0.01110   0.17375   Biso      1.000     O          -0.7734409999999999           
         O17       1.0000    0.45087   0.33650   0.45050   Biso      1.000     O          -0.785046           
         O18       1.0000    0.88366   0.90170   0.93160   Biso      1.000     O          -0.697854           
         O19       1.0000    0.41955   0.48890   0.67375   Biso      1.000     O          -0.773443           
         O20       1.0000    0.38366   0.59830   0.43160   Biso      1.000     O          -0.697855           
         O21       1.0000    0.91955   0.98890   0.67375   Biso      1.000     O          -0.7734409999999999           
         O22       1.0000    0.95087   0.83650   0.45050   Biso      1.000     O          -0.785044           
         O23       1.0000    0.88366   0.09830   0.43160   Biso      1.000     O          -0.697854           
         O24       1.0000    0.95087   0.16350   0.95050   Biso      1.000     O          -0.785044           
         P1        1.0000    0.89786   0.06056   0.02047   Biso      1.000     P          1.345533  
         P2        1.0000    0.10214   0.93944   0.97953   Biso      1.000     P          1.345532  
         P3        1.0000    0.39786   0.43944   0.52047   Biso      1.000     P          1.345537  
         P4        1.0000    0.10214   0.06056   0.47953   Biso      1.000     P          1.345532  
         P5        1.0000    0.60214   0.56056   0.47953   Biso      1.000     P          1.345537  
         P6        1.0000    0.89786   0.93944   0.52047   Biso      1.000     P          1.345532  
         P7        1.0000    0.60214   0.43944   0.97953   Biso      1.000     P          1.345537  
         P8        1.0000    0.39786   0.56056   0.02047   Biso      1.000     P          1.345536 