
##########################################################################
#               Crystallographic Information Format file
#               Produced by PyCifRW module
#
#  This is a CIF file.  CIF has been adopted by the International
#  Union of Crystallography as the standard for data archiving and
#  transmission.
#
#  For information on this file format, follow the CIF links at
#  http://www.iucr.org
##########################################################################

data_image0

_cell_length_a                          10.509
_cell_length_b                          11.48
_cell_length_c                          13.426
_cell_angle_alpha                       69.137
_cell_angle_beta                        78.671
_cell_angle_gamma                       63.564
_symmetry_space_group_name_H-M          'P 1'
_symmetry_int_tables_number             1
loop_
  _symmetry_equiv_pos_as_xyz
         'x, y, z' 
loop_
  _atom_site_label
  _atom_site_occupancy
  _atom_site_fract_x
  _atom_site_fract_y
  _atom_site_fract_z
  _atom_site_thermal_displace_type
  _atom_site_B_iso_or_equiv
  _atom_site_type_symbol
  _atom_site_charge
         C1        1.0000    0.89220   0.29290   0.72460   Biso      1.000     C          0.68943   
         C2        1.0000    0.38350   0.12380   0.49510   Biso      1.000     C          -0.07033400000000001          
         C3        1.0000    0.51380   0.12320   0.44440   Biso      1.000     C          -0.051415999999999996         
         C4        1.0000    0.13760   0.53750   0.14260   Biso      1.000     C          0.532524  
         C5        1.0000    0.64000   0.80540   0.04340   Biso      1.000     C          0.6605840000000001  
         C6        1.0000    0.59250   0.95800   0.20500   Biso      1.000     C          0.673299  
         C7        1.0000    0.10780   0.70710   0.27540   Biso      1.000     C          0.68907   
         C8        1.0000    0.53450   0.25080   0.37990   Biso      1.000     C          0.641007  
         C9        1.0000    0.25620   0.25250   0.49390   Biso      1.000     C          0.54887   
         C10       1.0000    0.75430   0.78510   0.10420   Biso      1.000     C          -0.08845900000000001          
         C11       1.0000    0.73440   0.85730   0.17670   Biso      1.000     C          -0.044492000000000004         
         C12       1.0000    0.85330   0.83500   0.22680   Biso      1.000     C          -0.153591           
         C13       1.0000    0.37130   0.99810   0.55200   Biso      1.000     C          -0.134786           
         C14       1.0000    0.74380   0.74750   0.50610   Biso      1.000     C          0.549615  
         C15       1.0000    0.46550   0.74920   0.62010   Biso      1.000     C          0.639313  
         C16       1.0000    0.00300   0.65740   0.14770   Biso      1.000     C          -0.062791           
         C17       1.0000    0.89040   0.68700   0.09000   Biso      1.000     C          -0.10327599999999999          
         C18       1.0000    0.36000   0.19460   0.95660   Biso      1.000     C          0.658125  
         C19       1.0000    0.86240   0.46250   0.85740   Biso      1.000     C          0.532265  
         C20       1.0000    0.48620   0.87680   0.55560   Biso      1.000     C          -0.049638           
         C21       1.0000    0.98770   0.73320   0.21280   Biso      1.000     C          -0.048313999999999996         
         C22       1.0000    0.61650   0.87620   0.50490   Biso      1.000     C          -0.06915700000000001          
         C23       1.0000    0.99700   0.34260   0.85230   Biso      1.000     C          -0.064594           
         C24       1.0000    0.62870   0.00190   0.44800   Biso      1.000     C          -0.135812           
         C25       1.0000    0.01230   0.26680   0.78720   Biso      1.000     C          -0.050048           
         C26       1.0000    0.10960   0.31300   0.91000   Biso      1.000     C          -0.10483599999999998          
         C27       1.0000    0.40750   0.04200   0.79500   Biso      1.000     C          0.669691  
         C28       1.0000    0.14670   0.16500   0.77320   Biso      1.000     C          -0.154752           
         C29       1.0000    0.26560   0.14270   0.82330   Biso      1.000     C          -0.04431  
         C30       1.0000    0.24570   0.21490   0.89580   Biso      1.000     C          -0.088921           
         H1        1.0000    0.15740   0.11210   0.73080   Biso      1.000     H          0.140397  
         H2        1.0000    0.90560   0.64090   0.04120   Biso      1.000     H          0.146018  
         H3        1.0000    0.71450   0.00170   0.41330   Biso      1.000     H          0.1405    
         H4        1.0000    0.84260   0.88790   0.26920   Biso      1.000     H          0.140736  
         H5        1.0000    0.09440   0.35910   0.95880   Biso      1.000     H          0.145478  
         H6        1.0000    0.28550   0.99830   0.58670   Biso      1.000     H          0.14079   
         O1        1.0000    0.73470   0.63410   0.53340   Biso      1.000     O          -0.619356           
         O2        1.0000    0.23860   0.50290   0.20060   Biso      1.000     O          -0.603655           
         O3        1.0000    0.18790   0.76580   0.22740   Biso      1.000     O          -0.673609           
         O4        1.0000    0.11460   0.63750   0.37380   Biso      1.000     O          -0.639529           
         O5        1.0000    0.49540   0.92080   0.24470   Biso      1.000     O          -0.694735           
         O6        1.0000    0.51730   0.82010   0.08460   Biso      1.000     O          -0.707793           
         O7        1.0000    0.14770   0.46560   0.08600   Biso      1.000     O          -0.598306           
         O8        1.0000    0.58470   0.07810   0.18300   Biso      1.000     O          -0.610012           
         O9        1.0000    0.50160   0.30560   0.28100   Biso      1.000     O          -0.6660510000000001           
         O10       1.0000    0.13660   0.25170   0.51860   Biso      1.000     O          -0.6428689999999999           
         O11       1.0000    0.86340   0.74830   0.48140   Biso      1.000     O          -0.644173           
         O12       1.0000    0.67160   0.80490   0.94880   Biso      1.000     O          -0.6186470000000001           
         O13       1.0000    0.40950   0.70260   0.57920   Biso      1.000     O          -0.586005           
         O14       1.0000    0.49840   0.69440   0.71900   Biso      1.000     O          -0.663586           
         O15       1.0000    0.32840   0.19510   0.05120   Biso      1.000     O          -0.6214649999999999           
         O16       1.0000    0.48270   0.17990   0.91540   Biso      1.000     O          -0.7116520000000001           
         O17       1.0000    0.50460   0.07920   0.75530   Biso      1.000     O          -0.6984   
         O18       1.0000    0.41530   0.92190   0.81700   Biso      1.000     O          -0.6116699999999999           
         O19       1.0000    0.88540   0.36250   0.62620   Biso      1.000     O          -0.6406310000000001           
         O20       1.0000    0.81210   0.23420   0.77260   Biso      1.000     O          -0.674014           
         O21       1.0000    0.76140   0.49710   0.79940   Biso      1.000     O          -0.604445           
         O22       1.0000    0.85230   0.53440   0.91400   Biso      1.000     O          -0.598675           
         O23       1.0000    0.26530   0.36590   0.46660   Biso      1.000     O          -0.619912           
         O24       1.0000    0.59050   0.29740   0.42080   Biso      1.000     O          -0.581711           
         U1        1.0000    0.62233   0.71400   0.83603   Biso      1.000     U          1.687142  
         U2        1.0000    0.37767   0.28600   0.16397   Biso      1.000     U          1.6879689999999998  
         U3        1.0000    0.00000   0.50000   0.50000   Biso      1.000     U          1.988459  
         Yb1       1.0000    0.59779   0.23117   0.75074   Biso      1.000     Yb          1.574177  
         Yb2       1.0000    0.40221   0.76883   0.24926   Biso      1.000     Yb          1.574966 