
##########################################################################
#               Crystallographic Information Format file
#               Produced by PyCifRW module
#
#  This is a CIF file.  CIF has been adopted by the International
#  Union of Crystallography as the standard for data archiving and
#  transmission.
#
#  For information on this file format, follow the CIF links at
#  http://www.iucr.org
##########################################################################

data_image0

_cell_length_a                          10.8761
_cell_length_b                          11.4866
_cell_length_c                          13.4225
_cell_angle_alpha                       69.499
_cell_angle_beta                        79.992
_cell_angle_gamma                       62.506
_symmetry_space_group_name_H-M          'P 1'
_symmetry_int_tables_number             1
loop_
  _symmetry_equiv_pos_as_xyz
         'x, y, z' 
loop_
  _atom_site_label
  _atom_site_occupancy
  _atom_site_fract_x
  _atom_site_fract_y
  _atom_site_fract_z
  _atom_site_thermal_displace_type
  _atom_site_B_iso_or_equiv
  _atom_site_type_symbol
  _atom_site_charge
         C1        1.0000    0.74260   0.74440   0.50560   Biso      1.000     C          0.53212   
         C2        1.0000    0.87210   0.45550   0.85000   Biso      1.000     C          0.540053  
         C3        1.0000    0.35690   0.19860   0.96220   Biso      1.000     C          0.637851  
         C4        1.0000    0.41880   0.02970   0.80870   Biso      1.000     C          0.663443  
         C5        1.0000    0.91910   0.27750   0.71700   Biso      1.000     C          0.697194  
         C6        1.0000    0.47450   0.74580   0.61540   Biso      1.000     C          0.642411  
         C7        1.0000    0.08090   0.72250   0.28300   Biso      1.000     C          0.697197  
         C8        1.0000    0.25740   0.25560   0.49440   Biso      1.000     C          0.532134  
         C9        1.0000    0.99170   0.66290   0.15410   Biso      1.000     C          -0.072929           
         C10       1.0000    0.88280   0.68760   0.09520   Biso      1.000     C          -0.10398  
         C11       1.0000    0.74930   0.78540   0.10430   Biso      1.000     C          -0.091662           
         C12       1.0000    0.72270   0.86550   0.17190   Biso      1.000     C          -0.042021           
         C13       1.0000    0.83400   0.84490   0.22520   Biso      1.000     C          -0.143466           
         C14       1.0000    0.96730   0.74240   0.21990   Biso      1.000     C          -0.060595           
         C15       1.0000    0.37920   0.99800   0.54820   Biso      1.000     C          -0.137982           
         C16       1.0000    0.38480   0.12450   0.49670   Biso      1.000     C          -0.057315           
         C17       1.0000    0.50770   0.12520   0.44720   Biso      1.000     C          -0.051883           
         C18       1.0000    0.12790   0.54450   0.15000   Biso      1.000     C          0.540033  
         C19       1.0000    0.64310   0.80140   0.03780   Biso      1.000     C          0.637849  
         C20       1.0000    0.58120   0.97030   0.19130   Biso      1.000     C          0.663465  
         C21       1.0000    0.49230   0.87480   0.55280   Biso      1.000     C          -0.051877           
         C22       1.0000    0.61520   0.87550   0.50330   Biso      1.000     C          -0.057319           
         C23       1.0000    0.52550   0.25420   0.38460   Biso      1.000     C          0.642414  
         C24       1.0000    0.03270   0.25760   0.78010   Biso      1.000     C          -0.06059  
         C25       1.0000    0.62080   0.00200   0.45180   Biso      1.000     C          -0.137974           
         C26       1.0000    0.16600   0.15510   0.77480   Biso      1.000     C          -0.143469           
         C27       1.0000    0.27730   0.13450   0.82810   Biso      1.000     C          -0.04201  
         C28       1.0000    0.25070   0.21460   0.89570   Biso      1.000     C          -0.091663           
         C29       1.0000    0.11720   0.31240   0.90480   Biso      1.000     C          -0.103972           
         C30       1.0000    0.00830   0.33710   0.84590   Biso      1.000     C          -0.072943           
         H1        1.0000    0.70360   0.00250   0.41980   Biso      1.000     H          0.135701  
         H2        1.0000    0.81850   0.90160   0.26580   Biso      1.000     H          0.138384  
         H3        1.0000    0.29640   0.99750   0.58020   Biso      1.000     H          0.135701  
         H4        1.0000    0.90080   0.63710   0.04900   Biso      1.000     H          0.145999  
         H5        1.0000    0.09920   0.36290   0.95100   Biso      1.000     H          0.146001  
         H6        1.0000    0.18150   0.09840   0.73420   Biso      1.000     H          0.138388  
         Nd1       1.0000    0.62063   0.21519   0.77498   Biso      1.000     Nd          1.426195  
         Nd2       1.0000    0.37937   0.78481   0.22502   Biso      1.000     Nd          1.426233  
         O1        1.0000    0.50680   0.69150   0.71240   Biso      1.000     O          -0.674143           
         O2        1.0000    0.77420   0.48530   0.79430   Biso      1.000     O          -0.615352           
         O3        1.0000    0.85350   0.20740   0.76120   Biso      1.000     O          -0.646064           
         O4        1.0000    0.89830   0.35670   0.62270   Biso      1.000     O          -0.616491           
         O5        1.0000    0.42700   0.90950   0.82710   Biso      1.000     O          -0.621255           
         O6        1.0000    0.51700   0.05940   0.77600   Biso      1.000     O          -0.639251           
         O7        1.0000    0.47630   0.17600   0.93150   Biso      1.000     O          -0.644471           
         O8        1.0000    0.31210   0.21350   0.05440   Biso      1.000     O          -0.637012           
         O9        1.0000    0.85710   0.52830   0.90700   Biso      1.000     O          -0.590426           
         O10       1.0000    0.49320   0.30850   0.28760   Biso      1.000     O          -0.674174           
         O11       1.0000    0.73620   0.63140   0.53180   Biso      1.000     O          -0.583744           
         O12       1.0000    0.14250   0.24880   0.52270   Biso      1.000     O          -0.647405           
         O13       1.0000    0.26380   0.36860   0.46820   Biso      1.000     O          -0.58374  
         O14       1.0000    0.57480   0.29990   0.43020   Biso      1.000     O          -0.584262           
         O15       1.0000    0.68790   0.78650   0.94560   Biso      1.000     O          -0.636981           
         O16       1.0000    0.52370   0.82400   0.06850   Biso      1.000     O          -0.64447  
         O17       1.0000    0.48300   0.94060   0.22400   Biso      1.000     O          -0.639247           
         O18       1.0000    0.57300   0.09050   0.17290   Biso      1.000     O          -0.621264           
         O19       1.0000    0.10170   0.64330   0.37730   Biso      1.000     O          -0.61649  
         O20       1.0000    0.14650   0.79260   0.23880   Biso      1.000     O          -0.646064           
         O21       1.0000    0.22580   0.51470   0.20570   Biso      1.000     O          -0.615363           
         O22       1.0000    0.14290   0.47170   0.09300   Biso      1.000     O          -0.590446           
         O23       1.0000    0.85750   0.75120   0.47730   Biso      1.000     O          -0.647405           
         O24       1.0000    0.42520   0.70010   0.56980   Biso      1.000     O          -0.584257           
         U1        1.0000    0.63156   0.70286   0.83306   Biso      1.000     U          1.709755  
         U2        1.0000    0.36844   0.29714   0.16694   Biso      1.000     U          1.709858  
         U3        1.0000    0.00000   0.50000   0.50000   Biso      1.000     U          1.98505 