
##########################################################################
#               Crystallographic Information Format file
#               Produced by PyCifRW module
#
#  This is a CIF file.  CIF has been adopted by the International
#  Union of Crystallography as the standard for data archiving and
#  transmission.
#
#  For information on this file format, follow the CIF links at
#  http://www.iucr.org
##########################################################################

data_image0

_cell_length_a                          10.886
_cell_length_b                          11.4737
_cell_length_c                          13.4734
_cell_angle_alpha                       69.544
_cell_angle_beta                        80.149
_cell_angle_gamma                       62.652
_symmetry_space_group_name_H-M          'P 1'
_symmetry_int_tables_number             1
loop_
  _symmetry_equiv_pos_as_xyz
         'x, y, z' 
loop_
  _atom_site_label
  _atom_site_occupancy
  _atom_site_fract_x
  _atom_site_fract_y
  _atom_site_fract_z
  _atom_site_thermal_displace_type
  _atom_site_B_iso_or_equiv
  _atom_site_type_symbol
  _atom_site_charge
         C1        1.0000    0.74410   0.74510   0.50630   Biso      1.000     C          0.541042  
         C2        1.0000    0.87180   0.45460   0.84960   Biso      1.000     C          0.540039  
         C3        1.0000    0.35610   0.19830   0.96320   Biso      1.000     C          0.635599  
         C4        1.0000    0.41840   0.02920   0.80820   Biso      1.000     C          0.667104  
         C5        1.0000    0.91860   0.27650   0.71720   Biso      1.000     C          0.695715  
         C6        1.0000    0.47770   0.74430   0.61440   Biso      1.000     C          0.634662  
         C7        1.0000    0.08140   0.72350   0.28280   Biso      1.000     C          0.695713  
         C8        1.0000    0.25590   0.25490   0.49370   Biso      1.000     C          0.5409649999999999  
         C9        1.0000    0.99070   0.66300   0.15510   Biso      1.000     C          -0.070053           
         C10       1.0000    0.88340   0.68840   0.09590   Biso      1.000     C          -0.103148           
         C11       1.0000    0.74890   0.78610   0.10390   Biso      1.000     C          -0.092001           
         C12       1.0000    0.72260   0.86450   0.17290   Biso      1.000     C          -0.041926           
         C13       1.0000    0.83260   0.84450   0.22560   Biso      1.000     C          -0.147646           
         C14       1.0000    0.96770   0.74220   0.22000   Biso      1.000     C          -0.06250499999999999          
         C15       1.0000    0.37950   0.99800   0.54850   Biso      1.000     C          -0.135389           
         C16       1.0000    0.38310   0.12450   0.49590   Biso      1.000     C          -0.058834000000000004         
         C17       1.0000    0.50640   0.12610   0.44620   Biso      1.000     C          -0.051879999999999996         
         C18       1.0000    0.12820   0.54540   0.15040   Biso      1.000     C          0.540088  
         C19       1.0000    0.64390   0.80170   0.03680   Biso      1.000     C          0.6356729999999999  
         C20       1.0000    0.58160   0.97080   0.19180   Biso      1.000     C          0.667011  
         C21       1.0000    0.49360   0.87390   0.55380   Biso      1.000     C          -0.051862           
         C22       1.0000    0.61690   0.87550   0.50410   Biso      1.000     C          -0.058787           
         C23       1.0000    0.52230   0.25570   0.38560   Biso      1.000     C          0.634656  
         C24       1.0000    0.03230   0.25780   0.78000   Biso      1.000     C          -0.06253500000000001          
         C25       1.0000    0.16740   0.15550   0.77440   Biso      1.000     C          -0.147636           
         C26       1.0000    0.27740   0.13550   0.82710   Biso      1.000     C          -0.041963           
         C27       1.0000    0.25110   0.21390   0.89610   Biso      1.000     C          -0.091987           
         C28       1.0000    0.11660   0.31160   0.90410   Biso      1.000     C          -0.10316700000000001          
         C29       1.0000    0.00930   0.33700   0.84490   Biso      1.000     C          -0.070001           
         C30       1.0000    0.62050   0.00200   0.45150   Biso      1.000     C          -0.135375           
         H1        1.0000    0.70250   0.00320   0.41870   Biso      1.000     H          0.13530899999999998           
         H2        1.0000    0.18340   0.09910   0.73360   Biso      1.000     H          0.137715  
         H3        1.0000    0.09790   0.36160   0.95070   Biso      1.000     H          0.143491  
         H4        1.0000    0.90210   0.63840   0.04930   Biso      1.000     H          0.143489  
         H5        1.0000    0.29750   0.99680   0.58130   Biso      1.000     H          0.13531400000000002           
         H6        1.0000    0.81660   0.90090   0.26640   Biso      1.000     H          0.137716  
         O1        1.0000    0.50800   0.69100   0.71280   Biso      1.000     O          -0.675242           
         O2        1.0000    0.31240   0.21330   0.05450   Biso      1.000     O          -0.634476           
         O3        1.0000    0.47560   0.17500   0.93150   Biso      1.000     O          -0.6514409999999999           
         O4        1.0000    0.85280   0.20750   0.76110   Biso      1.000     O          -0.6397970000000001           
         O5        1.0000    0.42700   0.90890   0.82740   Biso      1.000     O          -0.618564           
         O6        1.0000    0.89990   0.35570   0.62260   Biso      1.000     O          -0.621895           
         O7        1.0000    0.77430   0.48420   0.79480   Biso      1.000     O          -0.605183           
         O8        1.0000    0.85810   0.52950   0.90560   Biso      1.000     O          -0.597957           
         O9        1.0000    0.51510   0.06060   0.77480   Biso      1.000     O          -0.643193           
         O10       1.0000    0.42840   0.69620   0.56970   Biso      1.000     O          -0.582128           
         O11       1.0000    0.49200   0.30900   0.28720   Biso      1.000     O          -0.675154           
         O12       1.0000    0.14170   0.24880   0.52280   Biso      1.000     O          -0.647081           
         O13       1.0000    0.26090   0.36830   0.46500   Biso      1.000     O          -0.588366           
         O14       1.0000    0.57160   0.30380   0.43030   Biso      1.000     O          -0.5821149999999999           
         O15       1.0000    0.68760   0.78670   0.94550   Biso      1.000     O          -0.63455  
         O16       1.0000    0.52440   0.82500   0.06850   Biso      1.000     O          -0.6513680000000001           
         O17       1.0000    0.48490   0.93940   0.22520   Biso      1.000     O          -0.643243           
         O18       1.0000    0.57300   0.09110   0.17260   Biso      1.000     O          -0.618575           
         O19       1.0000    0.10010   0.64430   0.37740   Biso      1.000     O          -0.621896           
         O20       1.0000    0.14720   0.79250   0.23890   Biso      1.000     O          -0.639804           
         O21       1.0000    0.22570   0.51580   0.20520   Biso      1.000     O          -0.605228           
         O22       1.0000    0.14190   0.47050   0.09440   Biso      1.000     O          -0.597903           
         O23       1.0000    0.85830   0.75120   0.47720   Biso      1.000     O          -0.647079           
         O24       1.0000    0.73910   0.63170   0.53500   Biso      1.000     O          -0.588353           
         Pr1       1.0000    0.38025   0.78428   0.22531   Biso      1.000     Pr          1.451631  
         Pr2       1.0000    0.61975   0.21572   0.77469   Biso      1.000     Pr          1.45171   
         U1        1.0000    0.63171   0.70253   0.83336   Biso      1.000     U          1.6974619999999998  
         U2        1.0000    0.36829   0.29747   0.16664   Biso      1.000     U          1.697372  
         U3        1.0000    0.00000   0.50000   0.50000   Biso      1.000     U          1.977809 