
##########################################################################
#               Crystallographic Information Format file
#               Produced by PyCifRW module
#
#  This is a CIF file.  CIF has been adopted by the International
#  Union of Crystallography as the standard for data archiving and
#  transmission.
#
#  For information on this file format, follow the CIF links at
#  http://www.iucr.org
##########################################################################

data_image0

_cell_length_a                          10.9453
_cell_length_b                          11.4851
_cell_length_c                          13.453
_cell_angle_alpha                       69.539
_cell_angle_beta                        80.095
_cell_angle_gamma                       62.42
_symmetry_space_group_name_H-M          'P 1'
_symmetry_int_tables_number             1
loop_
  _symmetry_equiv_pos_as_xyz
         'x, y, z' 
loop_
  _atom_site_label
  _atom_site_occupancy
  _atom_site_fract_x
  _atom_site_fract_y
  _atom_site_fract_z
  _atom_site_thermal_displace_type
  _atom_site_B_iso_or_equiv
  _atom_site_type_symbol
  _atom_site_charge
         C1        1.0000    0.74220   0.74470   0.50780   Biso      1.000     C          0.540061  
         C2        1.0000    0.87270   0.45470   0.84870   Biso      1.000     C          0.538287  
         C3        1.0000    0.35590   0.19850   0.96220   Biso      1.000     C          0.633116  
         C4        1.0000    0.41910   0.02780   0.80900   Biso      1.000     C          0.660732  
         C5        1.0000    0.92110   0.27490   0.71710   Biso      1.000     C          0.696782  
         C6        1.0000    0.47960   0.74470   0.61640   Biso      1.000     C          0.6322260000000001  
         C7        1.0000    0.07890   0.72510   0.28290   Biso      1.000     C          0.696782  
         C8        1.0000    0.25780   0.25530   0.49220   Biso      1.000     C          0.540064  
         C9        1.0000    0.99170   0.66410   0.15420   Biso      1.000     C          -0.075676           
         C10       1.0000    0.88200   0.68880   0.09510   Biso      1.000     C          -0.104054           
         C11       1.0000    0.74900   0.78490   0.10480   Biso      1.000     C          -0.087132           
         C12       1.0000    0.72200   0.86330   0.17330   Biso      1.000     C          -0.044216000000000005         
         C13       1.0000    0.83290   0.84470   0.22630   Biso      1.000     C          -0.150178           
         C14       1.0000    0.96740   0.74320   0.21940   Biso      1.000     C          -0.063467           
         C15       1.0000    0.37990   0.99890   0.54850   Biso      1.000     C          -0.135712           
         C16       1.0000    0.38190   0.12570   0.49640   Biso      1.000     C          -0.060246           
         C17       1.0000    0.50540   0.12640   0.44660   Biso      1.000     C          -0.052888           
         C18       1.0000    0.12730   0.54530   0.15130   Biso      1.000     C          0.5382859999999999  
         C19       1.0000    0.64410   0.80150   0.03780   Biso      1.000     C          0.633112  
         C20       1.0000    0.58090   0.97220   0.19100   Biso      1.000     C          0.6607350000000001  
         C21       1.0000    0.49460   0.87360   0.55340   Biso      1.000     C          -0.052888           
         C22       1.0000    0.61810   0.87430   0.50360   Biso      1.000     C          -0.060247           
         C23       1.0000    0.52040   0.25530   0.38360   Biso      1.000     C          0.6322270000000001  
         C24       1.0000    0.03260   0.25680   0.78060   Biso      1.000     C          -0.063467           
         C25       1.0000    0.62010   0.00110   0.45150   Biso      1.000     C          -0.135712           
         C26       1.0000    0.16710   0.15530   0.77370   Biso      1.000     C          -0.150179           
         C27       1.0000    0.27800   0.13670   0.82670   Biso      1.000     C          -0.044213999999999996         
         C28       1.0000    0.25100   0.21510   0.89520   Biso      1.000     C          -0.087136           
         C29       1.0000    0.11800   0.31120   0.90490   Biso      1.000     C          -0.10405  
         C30       1.0000    0.00830   0.33590   0.84580   Biso      1.000     C          -0.075676           
         Ce1       1.0000    0.62199   0.21398   0.77513   Biso      1.000     Ce          1.473653  
         Ce2       1.0000    0.37801   0.78602   0.22487   Biso      1.000     Ce          1.47365   
         H1        1.0000    0.70160   0.00260   0.41860   Biso      1.000     H          0.13482   
         H2        1.0000    0.81670   0.90130   0.26710   Biso      1.000     H          0.138786  
         H3        1.0000    0.29840   0.99740   0.58140   Biso      1.000     H          0.13482   
         H4        1.0000    0.90030   0.63890   0.04850   Biso      1.000     H          0.144861  
         H5        1.0000    0.09970   0.36110   0.95150   Biso      1.000     H          0.144861  
         H6        1.0000    0.18330   0.09870   0.73290   Biso      1.000     H          0.138786  
         O1        1.0000    0.85640   0.20590   0.76120   Biso      1.000     O          -0.6323810000000001           
         O2        1.0000    0.90090   0.35530   0.62260   Biso      1.000     O          -0.6237229999999999           
         O3        1.0000    0.50860   0.69140   0.71280   Biso      1.000     O          -0.6573140000000001           
         O4        1.0000    0.42830   0.90810   0.82750   Biso      1.000     O          -0.6128170000000001           
         O5        1.0000    0.51550   0.06050   0.77490   Biso      1.000     O          -0.646809           
         O6        1.0000    0.47510   0.17410   0.93150   Biso      1.000     O          -0.6468510000000001           
         O7        1.0000    0.31180   0.21460   0.05380   Biso      1.000     O          -0.640578           
         O8        1.0000    0.77530   0.48420   0.79440   Biso      1.000     O          -0.606845           
         O9        1.0000    0.85870   0.52870   0.90510   Biso      1.000     O          -0.596197           
         O10       1.0000    0.49140   0.30860   0.28720   Biso      1.000     O          -0.6573180000000001           
         O11       1.0000    0.73910   0.62970   0.53390   Biso      1.000     O          -0.5898800000000001           
         O12       1.0000    0.14370   0.24870   0.52140   Biso      1.000     O          -0.6532   
         O13       1.0000    0.26090   0.37030   0.46610   Biso      1.000     O          -0.589879           
         O14       1.0000    0.57120   0.30180   0.42960   Biso      1.000     O          -0.593916           
         O15       1.0000    0.68820   0.78540   0.94620   Biso      1.000     O          -0.6405770000000001           
         O16       1.0000    0.52490   0.82590   0.06850   Biso      1.000     O          -0.646854           
         O17       1.0000    0.48450   0.93950   0.22510   Biso      1.000     O          -0.646807           
         O18       1.0000    0.57170   0.09190   0.17250   Biso      1.000     O          -0.6128170000000001           
         O19       1.0000    0.09910   0.64470   0.37740   Biso      1.000     O          -0.623724           
         O20       1.0000    0.14360   0.79410   0.23880   Biso      1.000     O          -0.6323810000000001           
         O21       1.0000    0.22470   0.51580   0.20560   Biso      1.000     O          -0.606843           
         O22       1.0000    0.14130   0.47130   0.09490   Biso      1.000     O          -0.596201           
         O23       1.0000    0.85630   0.75130   0.47860   Biso      1.000     O          -0.6532   
         O24       1.0000    0.42880   0.69820   0.57040   Biso      1.000     O          -0.593916           
         U1        1.0000    0.63266   0.70178   0.83352   Biso      1.000     U          1.68954   
         U2        1.0000    0.36734   0.29822   0.16648   Biso      1.000     U          1.689544  
         U3        1.0000    0.00000   0.50000   0.50000   Biso      1.000     U          1.982435 