
##########################################################################
#               Crystallographic Information Format file
#               Produced by PyCifRW module
#
#  This is a CIF file.  CIF has been adopted by the International
#  Union of Crystallography as the standard for data archiving and
#  transmission.
#
#  For information on this file format, follow the CIF links at
#  http://www.iucr.org
##########################################################################

data_image0

_cell_length_a                          10.587
_cell_length_b                          11.487
_cell_length_c                          13.372
_cell_angle_alpha                       69.301
_cell_angle_beta                        79.25
_cell_angle_gamma                       63.14
_symmetry_space_group_name_H-M          'P 1'
_symmetry_int_tables_number             1
loop_
  _symmetry_equiv_pos_as_xyz
         'x, y, z' 
loop_
  _atom_site_label
  _atom_site_occupancy
  _atom_site_fract_x
  _atom_site_fract_y
  _atom_site_fract_z
  _atom_site_thermal_displace_type
  _atom_site_B_iso_or_equiv
  _atom_site_type_symbol
  _atom_site_charge
         C1        1.0000    0.63970   0.80310   0.04290   Biso      1.000     C          0.647201  
         C2        1.0000    0.88660   0.68680   0.09360   Biso      1.000     C          -0.096778           
         C3        1.0000    0.99820   0.65780   0.15010   Biso      1.000     C          -0.068982           
         C4        1.0000    0.59000   0.96270   0.19690   Biso      1.000     C          0.67042   
         C5        1.0000    0.09990   0.70860   0.27590   Biso      1.000     C          0.700337  
         C6        1.0000    0.53140   0.25030   0.38060   Biso      1.000     C          0.647798  
         C7        1.0000    0.25690   0.25430   0.49660   Biso      1.000     C          0.549616  
         C8        1.0000    0.73070   0.85870   0.17370   Biso      1.000     C          -0.048148           
         C9        1.0000    0.84750   0.83640   0.22320   Biso      1.000     C          -0.142145           
         C10       1.0000    0.98060   0.73430   0.21550   Biso      1.000     C          -0.056502           
         C11       1.0000    0.37620   0.00020   0.55020   Biso      1.000     C          -0.13929  
         C12       1.0000    0.13580   0.53550   0.14660   Biso      1.000     C          0.544193  
         C13       1.0000    0.38470   0.12420   0.49630   Biso      1.000     C          -0.059913           
         C14       1.0000    0.50980   0.12480   0.44420   Biso      1.000     C          -0.053911           
         C15       1.0000    0.74310   0.74570   0.50340   Biso      1.000     C          0.54948   
         C16       1.0000    0.90010   0.29140   0.72410   Biso      1.000     C          0.700319  
         C17       1.0000    0.46860   0.74970   0.61940   Biso      1.000     C          0.647776  
         C18       1.0000    0.36030   0.19690   0.95710   Biso      1.000     C          0.647387  
         C19       1.0000    0.00180   0.34220   0.84990   Biso      1.000     C          -0.069043           
         C20       1.0000    0.11340   0.31320   0.90640   Biso      1.000     C          -0.096732           
         C21       1.0000    0.24750   0.21690   0.89550   Biso      1.000     C          -0.08735  
         C22       1.0000    0.26930   0.14130   0.82630   Biso      1.000     C          -0.048003           
         C23       1.0000    0.15250   0.16360   0.77680   Biso      1.000     C          -0.14218  
         C24       1.0000    0.41000   0.03730   0.80310   Biso      1.000     C          0.670208  
         C25       1.0000    0.01940   0.26570   0.78450   Biso      1.000     C          -0.056383           
         C26       1.0000    0.75250   0.78310   0.10450   Biso      1.000     C          -0.087356           
         C27       1.0000    0.61530   0.87580   0.50370   Biso      1.000     C          -0.060002           
         C28       1.0000    0.49020   0.87520   0.55580   Biso      1.000     C          -0.053927           
         C29       1.0000    0.86420   0.46450   0.85340   Biso      1.000     C          0.544264  
         C30       1.0000    0.62380   0.99980   0.44980   Biso      1.000     C          -0.139299           
         Gd1       1.0000    0.39619   0.77226   0.24543   Biso      1.000     Gd          1.36812   
         Gd2       1.0000    0.60381   0.22774   0.75457   Biso      1.000     Gd          1.368301  
         H1        1.0000    0.83550   0.89260   0.26330   Biso      1.000     H          0.136653  
         H2        1.0000    0.70930   0.99890   0.41620   Biso      1.000     H          0.133323  
         H3        1.0000    0.29070   0.00110   0.58380   Biso      1.000     H          0.13331   
         H4        1.0000    0.09740   0.36100   0.95430   Biso      1.000     H          0.138987  
         H5        1.0000    0.90260   0.63900   0.04570   Biso      1.000     H          0.138981  
         H6        1.0000    0.16450   0.10740   0.73670   Biso      1.000     H          0.136666  
         O1        1.0000    0.86100   0.74820   0.47700   Biso      1.000     O          -0.646896           
         O2        1.0000    0.23610   0.50430   0.20110   Biso      1.000     O          -0.603576           
         O3        1.0000    0.17520   0.77050   0.23250   Biso      1.000     O          -0.62494  
         O4        1.0000    0.11070   0.63600   0.37460   Biso      1.000     O          -0.638834           
         O5        1.0000    0.58080   0.08210   0.17670   Biso      1.000     O          -0.606631           
         O6        1.0000    0.52060   0.82030   0.07990   Biso      1.000     O          -0.625701           
         O7        1.0000    0.67760   0.79960   0.94630   Biso      1.000     O          -0.63506  
         O8        1.0000    0.49620   0.30340   0.28370   Biso      1.000     O          -0.66343  
         O9        1.0000    0.14750   0.46430   0.09040   Biso      1.000     O          -0.592855           
         O10       1.0000    0.49240   0.92880   0.23790   Biso      1.000     O          -0.652519           
         O11       1.0000    0.26710   0.36540   0.46770   Biso      1.000     O          -0.603561           
         O12       1.0000    0.58580   0.29550   0.42230   Biso      1.000     O          -0.58838  
         O13       1.0000    0.73290   0.63460   0.53230   Biso      1.000     O          -0.603587           
         O14       1.0000    0.41420   0.70450   0.57770   Biso      1.000     O          -0.58837  
         O15       1.0000    0.50380   0.69660   0.71630   Biso      1.000     O          -0.663107           
         O16       1.0000    0.32240   0.20040   0.05370   Biso      1.000     O          -0.635386           
         O17       1.0000    0.47940   0.17970   0.92010   Biso      1.000     O          -0.625674           
         O18       1.0000    0.50760   0.07120   0.76210   Biso      1.000     O          -0.652619           
         O19       1.0000    0.41920   0.91790   0.82330   Biso      1.000     O          -0.606528           
         O20       1.0000    0.88930   0.36400   0.62540   Biso      1.000     O          -0.63882  
         O21       1.0000    0.82480   0.22950   0.76750   Biso      1.000     O          -0.62498  
         O22       1.0000    0.76390   0.49570   0.79890   Biso      1.000     O          -0.603577           
         O23       1.0000    0.85250   0.53570   0.90960   Biso      1.000     O          -0.592678           
         O24       1.0000    0.13900   0.25180   0.52300   Biso      1.000     O          -0.646888           
         U1        1.0000    0.62533   0.71279   0.83466   Biso      1.000     U          1.697065  
         U2        1.0000    0.37467   0.28721   0.16534   Biso      1.000     U          1.698249  
         U3        1.0000    0.00000   0.50000   0.50000   Biso      1.000     U          2.001884 