
##########################################################################
#               Crystallographic Information Format file
#               Produced by PyCifRW module
#
#  This is a CIF file.  CIF has been adopted by the International
#  Union of Crystallography as the standard for data archiving and
#  transmission.
#
#  For information on this file format, follow the CIF links at
#  http://www.iucr.org
##########################################################################

data_image0

_cell_length_a                          15.9473
_cell_length_b                          6.631
_cell_length_c                          13.9205
_cell_angle_alpha                       90
_cell_angle_beta                        90
_cell_angle_gamma                       90
_symmetry_space_group_name_H-M          'P 1'
_symmetry_int_tables_number             1
loop_
  _symmetry_equiv_pos_as_xyz
         'x, y, z' 
loop_
  _atom_site_label
  _atom_site_occupancy
  _atom_site_fract_x
  _atom_site_fract_y
  _atom_site_fract_z
  _atom_site_thermal_displace_type
  _atom_site_B_iso_or_equiv
  _atom_site_type_symbol
  _atom_site_charge
         Al1       1.0000    0.50004   0.49638   0.00040   Biso      1.000     Al          1.728072  
         Al2       1.0000    0.00127   0.49458   0.50093   Biso      1.000     Al          1.728307  
         Al3       1.0000    0.50021   0.99641   0.00072   Biso      1.000     Al          1.729137  
         Al4       1.0000    0.00100   0.99515   0.50031   Biso      1.000     Al          1.726589  
         C1        1.0000    0.71607   0.92774   0.78188   Biso      1.000     C          -0.097959           
         C2        1.0000    0.10966   0.74595   0.61402   Biso      1.000     C          0.635275  
         C3        1.0000    0.18111   0.74650   0.68495   Biso      1.000     C          -0.031966           
         C4        1.0000    0.78453   0.42846   0.28316   Biso      1.000     C          -0.099461           
         C5        1.0000    0.61065   0.24714   0.11180   Biso      1.000     C          0.634652  
         C6        1.0000    0.68240   0.24727   0.18287   Biso      1.000     C          -0.032665           
         C7        1.0000    0.21636   0.56510   0.71871   Biso      1.000     C          -0.09756  
         C8        1.0000    0.71731   0.42870   0.21729   Biso      1.000     C          -0.096098           
         C9        1.0000    0.21676   0.06386   0.28278   Biso      1.000     C          -0.097358           
         C10       1.0000    0.71580   0.56462   0.78208   Biso      1.000     C          -0.097645           
         C11       1.0000    0.28460   0.06433   0.21787   Biso      1.000     C          -0.097826           
         C12       1.0000    0.21628   0.92831   0.71853   Biso      1.000     C          -0.09748  
         C13       1.0000    0.78356   0.56418   0.71696   Biso      1.000     C          -0.097543           
         C14       1.0000    0.28392   0.92859   0.78378   Biso      1.000     C          -0.097811           
         C15       1.0000    0.39149   0.24649   0.11377   Biso      1.000     C          0.636337  
         C16       1.0000    0.31984   0.24621   0.18450   Biso      1.000     C          -0.031278           
         C17       1.0000    0.81895   0.74548   0.68299   Biso      1.000     C          -0.032295           
         C18       1.0000    0.71722   0.06557   0.21719   Biso      1.000     C          -0.097985           
         C19       1.0000    0.11049   0.24486   0.38808   Biso      1.000     C          0.635632  
         C20       1.0000    0.18174   0.24533   0.31692   Biso      1.000     C          -0.032899           
         C21       1.0000    0.78381   0.92729   0.71670   Biso      1.000     C          -0.097942           
         C22       1.0000    0.21653   0.42718   0.28305   Biso      1.000     C          -0.096569           
         C23       1.0000    0.68084   0.74639   0.81599   Biso      1.000     C          -0.032454           
         C24       1.0000    0.28434   0.42760   0.21808   Biso      1.000     C          -0.098284           
         C25       1.0000    0.60929   0.74659   0.88729   Biso      1.000     C          0.63502   
         C26       1.0000    0.81947   0.24668   0.31727   Biso      1.000     C          -0.03113  
         C27       1.0000    0.78444   0.06532   0.28298   Biso      1.000     C          -0.097176           
         C28       1.0000    0.39047   0.74704   0.88852   Biso      1.000     C          0.637378  
         C29       1.0000    0.31892   0.74710   0.81776   Biso      1.000     C          -0.031929           
         C30       1.0000    0.28400   0.56528   0.78389   Biso      1.000     C          -0.098191           
         C31       1.0000    0.89112   0.74508   0.61241   Biso      1.000     C          0.63522   
         C32       1.0000    0.89109   0.24608   0.38855   Biso      1.000     C          0.634419  
         H1        1.0000    0.30950   0.92173   0.19360   Biso      1.000     H          0.118721  
         H2        1.0000    0.00570   0.24441   0.61384   Biso      1.000     H          0.447279  
         H3        1.0000    0.80848   0.42109   0.69317   Biso      1.000     H          0.118433  
         H4        1.0000    0.00693   0.74436   0.38739   Biso      1.000     H          0.445869  
         H5        1.0000    0.69255   0.57148   0.19308   Biso      1.000     H          0.11816   
         H6        1.0000    0.49513   0.24599   0.88731   Biso      1.000     H          0.447275  
         H7        1.0000    0.19151   0.07109   0.69425   Biso      1.000     H          0.117839  
         H8        1.0000    0.19167   0.42223   0.69458   Biso      1.000     H          0.118441  
         H9        1.0000    0.69240   0.92279   0.19292   Biso      1.000     H          0.1187    
         H10       1.0000    0.80897   0.06980   0.69266   Biso      1.000     H          0.119013  
         H11       1.0000    0.30901   0.57065   0.19401   Biso      1.000     H          0.118307  
         H12       1.0000    0.80904   0.92247   0.30738   Biso      1.000     H          0.118813  
         H13       1.0000    0.30922   0.42239   0.80767   Biso      1.000     H          0.118214  
         H14       1.0000    0.19125   0.56976   0.30689   Biso      1.000     H          0.117921  
         H15       1.0000    0.80922   0.57124   0.30769   Biso      1.000     H          0.119537  
         H16       1.0000    0.69135   0.07080   0.80595   Biso      1.000     H          0.118772  
         H17       1.0000    0.30906   0.07148   0.80749   Biso      1.000     H          0.11858   
         H18       1.0000    0.49850   0.74597   0.11392   Biso      1.000     H          0.446621  
         H19       1.0000    0.69084   0.42201   0.80632   Biso      1.000     H          0.118752  
         H20       1.0000    0.19170   0.92074   0.30637   Biso      1.000     H          0.118114  
         O1        1.0000    0.00339   0.74456   0.44919   Biso      1.000     O          -1.047743           
         O2        1.0000    0.08062   0.57422   0.58505   Biso      1.000     O          -0.604277           
         O3        1.0000    0.92054   0.57338   0.58370   Biso      1.000     O          -0.604136           
         O4        1.0000    0.58134   0.07542   0.08297   Biso      1.000     O          -0.603137           
         O5        1.0000    0.92025   0.91622   0.58289   Biso      1.000     O          -0.60352  
         O6        1.0000    0.42024   0.41808   0.08417   Biso      1.000     O          -0.604587           
         O7        1.0000    0.42062   0.07495   0.08463   Biso      1.000     O          -0.604446           
         O8        1.0000    0.92045   0.07429   0.41733   Biso      1.000     O          -0.604184           
         O9        1.0000    0.41955   0.57549   0.91758   Biso      1.000     O          -0.6049   
         O10       1.0000    0.41953   0.91830   0.91797   Biso      1.000     O          -0.605346           
         O11       1.0000    0.08166   0.41647   0.41779   Biso      1.000     O          -0.604383           
         O12       1.0000    0.08136   0.07312   0.41698   Biso      1.000     O          -0.602895           
         O13       1.0000    0.58038   0.91824   0.91689   Biso      1.000     O          -0.60452  
         O14       1.0000    0.58133   0.41850   0.08258   Biso      1.000     O          -0.603752           
         O15       1.0000    0.92017   0.41743   0.41820   Biso      1.000     O          -0.603722           
         O16       1.0000    0.49957   0.74618   0.05199   Biso      1.000     O          -1.048589           
         O17       1.0000    0.00294   0.24460   0.55192   Biso      1.000     O          -1.049347           
         O18       1.0000    0.49828   0.24616   0.94921   Biso      1.000     O          -1.049528           
         O19       1.0000    0.58003   0.57496   0.91643   Biso      1.000     O          -0.603956           
         O20       1.0000    0.08094   0.91732   0.58415   Biso      1.000     O          -0.602929 