
##########################################################################
#               Crystallographic Information Format file
#               Produced by PyCifRW module
#
#  This is a CIF file.  CIF has been adopted by the International
#  Union of Crystallography as the standard for data archiving and
#  transmission.
#
#  For information on this file format, follow the CIF links at
#  http://www.iucr.org
##########################################################################

data_image0

_cell_length_a                          13.9668
_cell_length_b                          25.3174
_cell_length_c                          25.1821
_cell_angle_alpha                       32.1101
_cell_angle_beta                        74.4783
_cell_angle_gamma                       73.4115
_symmetry_space_group_name_H-M          'P 1'
_symmetry_int_tables_number             1
loop_
  _symmetry_equiv_pos_as_xyz
         'x, y, z' 
loop_
  _atom_site_label
  _atom_site_occupancy
  _atom_site_fract_x
  _atom_site_fract_y
  _atom_site_fract_z
  _atom_site_thermal_displace_type
  _atom_site_B_iso_or_equiv
  _atom_site_type_symbol
  _atom_site_charge
         C1        1.0000    0.94490   0.47650   0.15870   Biso      1.000     C          -0.053223           
         C2        1.0000    0.17054   0.37166   0.51966   Biso      1.000     C          -0.06041  
         C3        1.0000    0.17233   0.48047   0.51947   Biso      1.000     C          0.286331  
         C4        1.0000    0.23112   0.77328   0.05788   Biso      1.000     C          0.625674  
         C5        1.0000    0.35528   0.68492   0.17672   Biso      1.000     C          -0.079976           
         C6        1.0000    0.32815   0.86225   0.03445   Biso      1.000     C          -0.079169           
         C7        1.0000    0.51966   0.93814   0.17054   Biso      1.000     C          -0.060478           
         C8        1.0000    0.51947   0.82773   0.17233   Biso      1.000     C          0.28722   
         C9        1.0000    0.84990   0.39010   0.18410   Biso      1.000     C          -0.227198           
         C10       1.0000    0.80332   0.47948   0.09828   Biso      1.000     C          0.293639  
         C11       1.0000    0.64202   0.39438   0.09558   Biso      1.000     C          -0.217685           
         C12       1.0000    0.82508   0.56532   0.04312   Biso      1.000     C          -0.21684  
         C13       1.0000    0.64252   0.33948   0.09708   Biso      1.000     C          -0.070771           
         C14       1.0000    0.73129   0.25071   0.08271   Biso      1.000     C          0.614917  
         C15       1.0000    0.81910   0.34450   0.05690   Biso      1.000     C          -0.070277           
         C16       1.0000    0.19294   0.52426   0.43126   Biso      1.000     C          -0.229303           
         C17       1.0000    0.81874   0.39846   0.05706   Biso      1.000     C          -0.230538           
         C18       1.0000    0.73053   0.42227   0.07767   Biso      1.000     C          0.287229  
         C19       1.0000    0.73034   0.31186   0.07946   Biso      1.000     C          -0.060478           
         C20       1.0000    0.92185   0.38775   0.21555   Biso      1.000     C          -0.079168           
         C21       1.0000    0.89472   0.56508   0.07328   Biso      1.000     C          -0.079974           
         C22       1.0000    0.01888   0.47672   0.19212   Biso      1.000     C          0.625674  
         C23       1.0000    0.43126   0.85154   0.19294   Biso      1.000     C          -0.230542           
         C24       1.0000    0.30510   0.77350   0.09130   Biso      1.000     C          -0.05322  
         C25       1.0000    0.43090   0.90550   0.19310   Biso      1.000     C          -0.070269           
         C26       1.0000    0.51871   0.99929   0.16729   Biso      1.000     C          0.614917  
         C27       1.0000    0.03445   0.77515   0.32815   Biso      1.000     C          -0.08109  
         C28       1.0000    0.60748   0.91052   0.15292   Biso      1.000     C          -0.070784           
         C29       1.0000    0.17672   0.78308   0.35528   Biso      1.000     C          -0.078065           
         C30       1.0000    0.93772   0.05788   0.77328   Biso      1.000     C          0.626843  
         C31       1.0000    0.37166   0.17054   0.93814   Biso      1.000     C          -0.063121           
         C32       1.0000    0.48047   0.17233   0.82773   Biso      1.000     C          0.285671  
         C33       1.0000    0.52426   0.19294   0.85154   Biso      1.000     C          -0.230175           
         C34       1.0000    0.83010   0.09130   0.77350   Biso      1.000     C          -0.053257           
         C35       1.0000    0.47050   0.19310   0.90550   Biso      1.000     C          -0.067293           
         C36       1.0000    0.31471   0.16729   0.99929   Biso      1.000     C          0.614262  
         C37       1.0000    0.32908   0.15292   0.91052   Biso      1.000     C          -0.070323           
         C38       1.0000    0.68352   0.20688   0.68468   Biso      1.000     C          -0.216582           
         C39       1.0000    0.38198   0.15442   0.85562   Biso      1.000     C          -0.217012           
         C40       1.0000    0.63108   0.15172   0.77052   Biso      1.000     C          0.294214  
         C41       1.0000    0.39010   0.84990   0.57590   Biso      1.000     C          -0.228757           
         C42       1.0000    0.47948   0.80332   0.61892   Biso      1.000     C          0.295661  
         C43       1.0000    0.39438   0.64202   0.86802   Biso      1.000     C          -0.216875           
         C44       1.0000    0.56532   0.82508   0.56648   Biso      1.000     C          -0.216638           
         C45       1.0000    0.33948   0.64252   0.92092   Biso      1.000     C          -0.071622           
         C46       1.0000    0.25071   0.73129   0.93529   Biso      1.000     C          0.615405  
         C47       1.0000    0.34450   0.81910   0.77950   Biso      1.000     C          -0.070129           
         C48       1.0000    0.47650   0.94490   0.41990   Biso      1.000     C          -0.054424           
         C49       1.0000    0.39846   0.81874   0.72574   Biso      1.000     C          -0.230431           
         C50       1.0000    0.42227   0.73053   0.76953   Biso      1.000     C          0.287105  
         C51       1.0000    0.31186   0.73034   0.87834   Biso      1.000     C          -0.061014           
         C52       1.0000    0.38775   0.92185   0.47485   Biso      1.000     C          -0.07915  
         C53       1.0000    0.56508   0.89472   0.46692   Biso      1.000     C          -0.07837  
         C54       1.0000    0.47672   0.01888   0.31228   Biso      1.000     C          0.627046  
         C55       1.0000    0.67410   0.06590   0.85990   Biso      1.000     C          -0.236657           
         C56       1.0000    0.05788   0.93772   0.23112   Biso      1.000     C          0.623705  
         C57       1.0000    0.77515   0.03445   0.86225   Biso      1.000     C          -0.080026           
         C58       1.0000    0.42492   0.68468   0.20688   Biso      1.000     C          -0.216864           
         C59       1.0000    0.44668   0.77052   0.15172   Biso      1.000     C          0.293653  
         C60       1.0000    0.60798   0.85562   0.15442   Biso      1.000     C          -0.217667           
         C61       1.0000    0.77350   0.30510   0.83010   Biso      1.000     C          -0.054424           
         C62       1.0000    0.90550   0.43090   0.47050   Biso      1.000     C          -0.070129           
         C63       1.0000    0.99929   0.51871   0.31471   Biso      1.000     C          0.615405  
         C64       1.0000    0.91052   0.60748   0.32908   Biso      1.000     C          -0.071636           
         C65       1.0000    0.68468   0.42492   0.68352   Biso      1.000     C          -0.216666           
         C66       1.0000    0.18410   0.57590   0.84990   Biso      1.000     C          -0.227766           
         C67       1.0000    0.09828   0.61892   0.80332   Biso      1.000     C          0.296056  
         C68       1.0000    0.09558   0.86802   0.64202   Biso      1.000     C          -0.216377           
         C69       1.0000    0.04312   0.56648   0.82508   Biso      1.000     C          -0.217376           
         C70       1.0000    0.09708   0.92092   0.64252   Biso      1.000     C          -0.072271           
         C71       1.0000    0.08271   0.93529   0.73129   Biso      1.000     C          0.615555  
         C72       1.0000    0.05690   0.77950   0.81910   Biso      1.000     C          -0.07121  
         C73       1.0000    0.15870   0.41990   0.94490   Biso      1.000     C          -0.052748           
         C74       1.0000    0.05706   0.72574   0.81874   Biso      1.000     C          -0.229298           
         C75       1.0000    0.07767   0.76953   0.73053   Biso      1.000     C          0.286337  
         C76       1.0000    0.07946   0.87834   0.73034   Biso      1.000     C          -0.06041  
         C77       1.0000    0.21555   0.47485   0.92185   Biso      1.000     C          -0.081089           
         C78       1.0000    0.07328   0.46692   0.89472   Biso      1.000     C          -0.078063           
         C79       1.0000    0.19212   0.31228   0.01888   Biso      1.000     C          0.623706  
         C80       1.0000    0.85562   0.60798   0.38198   Biso      1.000     C          -0.216861           
         C81       1.0000    0.77052   0.44668   0.63108   Biso      1.000     C          0.295676  
         C82       1.0000    0.85990   0.40010   0.67410   Biso      1.000     C          -0.228746           
         C83       1.0000    0.82773   0.51947   0.48047   Biso      1.000     C          0.287101  
         C84       1.0000    0.93814   0.51966   0.37166   Biso      1.000     C          -0.061012           
         C85       1.0000    0.85154   0.43126   0.52426   Biso      1.000     C          -0.230428           
         C86       1.0000    0.68492   0.35528   0.78308   Biso      1.000     C          -0.078366           
         C87       1.0000    0.40010   0.85990   0.06590   Biso      1.000     C          -0.227188           
         C88       1.0000    0.09130   0.83010   0.30510   Biso      1.000     C          -0.052744           
         C89       1.0000    0.19310   0.47050   0.43090   Biso      1.000     C          -0.071203           
         C90       1.0000    0.16729   0.31471   0.51871   Biso      1.000     C          0.615555  
         C91       1.0000    0.15292   0.32908   0.60748   Biso      1.000     C          -0.072285           
         C92       1.0000    0.20688   0.68352   0.42492   Biso      1.000     C          -0.217403           
         C93       1.0000    0.57590   0.18410   0.39010   Biso      1.000     C          -0.236668           
         C94       1.0000    0.61892   0.09828   0.47948   Biso      1.000     C          0.2942    
         C95       1.0000    0.86802   0.09558   0.39438   Biso      1.000     C          -0.21703  
         C96       1.0000    0.56648   0.04312   0.56532   Biso      1.000     C          -0.216555           
         C97       1.0000    0.86225   0.32815   0.77515   Biso      1.000     C          -0.079152           
         C98       1.0000    0.93529   0.08271   0.25071   Biso      1.000     C          0.614261  
         C99       1.0000    0.77950   0.05690   0.34450   Biso      1.000     C          -0.067299           
         C100      1.0000    0.92092   0.09708   0.33948   Biso      1.000     C          -0.070309           
         C101      1.0000    0.72574   0.05706   0.39846   Biso      1.000     C          -0.230171           
         C102      1.0000    0.77328   0.23112   0.93772   Biso      1.000     C          0.627046  
         C103      1.0000    0.06590   0.67410   0.40010   Biso      1.000     C          -0.227769           
         C104      1.0000    0.41990   0.15870   0.47650   Biso      1.000     C          -0.053257           
         C105      1.0000    0.15172   0.63108   0.44668   Biso      1.000     C          0.296084  
         C106      1.0000    0.15442   0.38198   0.60798   Biso      1.000     C          -0.216359           
         C107      1.0000    0.78308   0.17672   0.68492   Biso      1.000     C          -0.079888           
         C108      1.0000    0.46692   0.07328   0.56508   Biso      1.000     C          -0.079891           
         C109      1.0000    0.47485   0.21555   0.38775   Biso      1.000     C          -0.080025           
         C110      1.0000    0.87834   0.07946   0.31186   Biso      1.000     C          -0.063122           
         C111      1.0000    0.76953   0.07767   0.42227   Biso      1.000     C          0.285679  
         C112      1.0000    0.31228   0.19212   0.47672   Biso      1.000     C          0.626843  
         H1        1.0000    0.35200   0.14360   0.83680   Biso      1.000     H          0.138275  
         H2        1.0000    0.65270   0.26610   0.62430   Biso      1.000     H          0.136409  
         H3        1.0000    0.26280   0.13960   0.93040   Biso      1.000     H          0.121573  
         H4        1.0000    0.49970   0.20810   0.92050   Biso      1.000     H          0.11584   
         H5        1.0000    0.59030   0.20670   0.83090   Biso      1.000     H          0.12996   
         H6        1.0000    0.63650   0.02830   0.91910   Biso      1.000     H          0.137751  
         H7        1.0000    0.03550   0.43170   0.90770   Biso      1.000     H          0.114906  
         H8        1.0000    0.29580   0.92300   0.97580   Biso      1.000     H          0.121907  
         H9        1.0000    0.75827   0.97393   0.26194   Biso      1.000     H          0.407277  
         H10       1.0000    0.24415   0.98806   0.27607   Biso      1.000     H          0.407013  
         H11       1.0000    0.00585   0.26194   0.97393   Biso      1.000     H          0.407013  
         H12       1.0000    0.49173   0.27607   0.98806   Biso      1.000     H          0.407277  
         H13       1.0000    0.91910   0.41610   0.63650   Biso      1.000     H          0.128136  
         H14       1.0000    0.83680   0.66760   0.35200   Biso      1.000     H          0.138055  
         H15       1.0000    0.62430   0.45690   0.65270   Biso      1.000     H          0.136059  
         H16       1.0000    0.93040   0.66720   0.26280   Biso      1.000     H          0.122091  
         H17       1.0000    0.92050   0.37170   0.49970   Biso      1.000     H          0.117096  
         H18       1.0000    0.83090   0.37210   0.59030   Biso      1.000     H          0.130043  
         H19       1.0000    0.92300   0.29580   0.80540   Biso      1.000     H          0.121924  
         H20       1.0000    0.62490   0.34230   0.81830   Biso      1.000     H          0.115284  
         H21       1.0000    0.80540   0.97580   0.92300   Biso      1.000     H          0.121831  
         H22       1.0000    0.41610   0.91910   0.02830   Biso      1.000     H          0.127281  
         H23       1.0000    0.66760   0.83680   0.14360   Biso      1.000     H          0.137804  
         H24       1.0000    0.45690   0.62430   0.26610   Biso      1.000     H          0.13646   
         H25       1.0000    0.66720   0.93040   0.13960   Biso      1.000     H          0.121205  
         H26       1.0000    0.37170   0.92050   0.20810   Biso      1.000     H          0.116828  
         H27       1.0000    0.37210   0.83090   0.20670   Biso      1.000     H          0.130288  
         H28       1.0000    0.34230   0.62490   0.21450   Biso      1.000     H          0.11616   
         H29       1.0000    0.81830   0.21450   0.62490   Biso      1.000     H          0.116104  
         H30       1.0000    0.14360   0.35200   0.66760   Biso      1.000     H          0.138066  
         H31       1.0000    0.90770   0.62510   0.03550   Biso      1.000     H          0.11616   
         H32       1.0000    0.41910   0.87790   0.65970   Biso      1.000     H          0.130043  
         H33       1.0000    0.32700   0.95420   0.44460   Biso      1.000     H          0.121924  
         H34       1.0000    0.62510   0.90770   0.43170   Biso      1.000     H          0.115285  
         H35       1.0000    0.83390   0.33090   0.22170   Biso      1.000     H          0.127282  
         H36       1.0000    0.58240   0.41320   0.10640   Biso      1.000     H          0.137805  
         H37       1.0000    0.79310   0.62570   0.98390   Biso      1.000     H          0.136458  
         H38       1.0000    0.58280   0.31960   0.11040   Biso      1.000     H          0.121204  
         H39       1.0000    0.87830   0.32950   0.04190   Biso      1.000     H          0.116828  
         H40       1.0000    0.87790   0.41910   0.04330   Biso      1.000     H          0.130288  
         H41       1.0000    0.95420   0.32700   0.27420   Biso      1.000     H          0.121907  
         H42       1.0000    0.26194   0.00585   0.75827   Biso      1.000     H          0.407236  
         H43       1.0000    0.61350   0.22170   0.33090   Biso      1.000     H          0.137752  
         H44       1.0000    0.32950   0.87830   0.75030   Biso      1.000     H          0.117096  
         H45       1.0000    0.89800   0.10640   0.41320   Biso      1.000     H          0.138277  
         H46       1.0000    0.98720   0.11040   0.31960   Biso      1.000     H          0.121572  
         H47       1.0000    0.75030   0.04190   0.32950   Biso      1.000     H          0.115841  
         H48       1.0000    0.65970   0.04330   0.41910   Biso      1.000     H          0.12996   
         H49       1.0000    0.44460   0.27420   0.32700   Biso      1.000     H          0.12183   
         H50       1.0000    0.43170   0.03550   0.62510   Biso      1.000     H          0.116104  
         H51       1.0000    0.22170   0.61350   0.83390   Biso      1.000     H          0.127401  
         H52       1.0000    0.10640   0.89800   0.58240   Biso      1.000     H          0.138068  
         H53       1.0000    0.98390   0.59730   0.79310   Biso      1.000     H          0.136243  
         H54       1.0000    0.11040   0.98720   0.58280   Biso      1.000     H          0.121875  
         H55       1.0000    0.04190   0.75030   0.87830   Biso      1.000     H          0.117232  
         H56       1.0000    0.04330   0.65970   0.87790   Biso      1.000     H          0.129891  
         H57       1.0000    0.27420   0.44460   0.95420   Biso      1.000     H          0.122813  
         H58       1.0000    0.59730   0.98390   0.62570   Biso      1.000     H          0.136407  
         H59       1.0000    0.31960   0.58280   0.98720   Biso      1.000     H          0.12209   
         H60       1.0000    0.97393   0.75827   0.00585   Biso      1.000     H          0.407953  
         H61       1.0000    0.41320   0.58240   0.89800   Biso      1.000     H          0.138056  
         H62       1.0000    0.02830   0.63650   0.41610   Biso      1.000     H          0.127401  
         H63       1.0000    0.98806   0.24415   0.49173   Biso      1.000     H          0.407236  
         H64       1.0000    0.26610   0.65270   0.45690   Biso      1.000     H          0.136245  
         H65       1.0000    0.13960   0.26280   0.66720   Biso      1.000     H          0.121876  
         H66       1.0000    0.20810   0.49970   0.37170   Biso      1.000     H          0.117231  
         H67       1.0000    0.20670   0.59030   0.37210   Biso      1.000     H          0.129892  
         H68       1.0000    0.97580   0.80540   0.29580   Biso      1.000     H          0.122813  
         H69       1.0000    0.62570   0.79310   0.59730   Biso      1.000     H          0.136057  
         H70       1.0000    0.27607   0.49173   0.24415   Biso      1.000     H          0.407953  
         H71       1.0000    0.33090   0.83390   0.61350   Biso      1.000     H          0.128137  
         H72       1.0000    0.21450   0.81830   0.34230   Biso      1.000     H          0.114906  
         In1       1.0000    0.13881   0.36119   0.36119   Biso      1.000     In          1.579739  
         In2       1.0000    0.12500   0.12500   0.62500   Biso      1.000     In          1.563667  
         In3       1.0000    0.12500   0.12500   0.12500   Biso      1.000     In          1.562999  
         In4       1.0000    0.88881   0.11119   0.11119   Biso      1.000     In          1.579087  
         In5       1.0000    0.11119   0.88881   0.88881   Biso      1.000     In          1.579739  
         In6       1.0000    0.36119   0.13881   0.13881   Biso      1.000     In          1.579088  
         In7       1.0000    0.62500   0.12500   0.12500   Biso      1.000     In          1.5638    
         In8       1.0000    0.12500   0.62500   0.12500   Biso      1.000     In          1.562524  
         O1        1.0000    0.18714   0.01444   0.76206   Biso      1.000     O          -0.899276           
         O2        1.0000    0.52949   0.17831   0.76731   Biso      1.000     O          -0.239866           
         O3        1.0000    0.01444   0.18714   0.03636   Biso      1.000     O          -0.898695           
         O4        1.0000    0.97708   0.10804   0.69072   Biso      1.000     O          -0.590791           
         O5        1.0000    0.06286   0.23556   0.48794   Biso      1.000     O          -0.899276           
         O6        1.0000    0.11681   0.01943   0.65251   Biso      1.000     O          -0.585567           
         O7        1.0000    0.05243   0.89803   0.80937   Biso      1.000     O          -0.617165           
         O8        1.0000    0.03636   0.76206   0.01444   Biso      1.000     O          -0.89983  
         O9        1.0000    0.03875   0.59749   0.23057   Biso      1.000     O          -0.585455           
         O10       1.0000    0.76731   0.52489   0.52949   Biso      1.000     O          -0.240484           
         O11       1.0000    0.85631   0.18385   0.97819   Biso      1.000     O          -0.57186  
         O12       1.0000    0.69072   0.22416   0.97708   Biso      1.000     O          -0.591038           
         O13       1.0000    0.26835   0.27181   0.06615   Biso      1.000     O          -0.570584           
         O14       1.0000    0.13319   0.23057   0.59749   Biso      1.000     O          -0.585566           
         O15       1.0000    0.19757   0.35197   0.44063   Biso      1.000     O          -0.617165           
         O16       1.0000    0.98165   0.97819   0.18385   Biso      1.000     O          -0.570584           
         O17       1.0000    0.10804   0.97708   0.22416   Biso      1.000     O          -0.589244           
         O18       1.0000    0.00983   0.44063   0.35197   Biso      1.000     O          -0.617284           
         O19       1.0000    0.14196   0.27292   0.02584   Biso      1.000     O          -0.589244           
         O20       1.0000    0.07169   0.72051   0.72511   Biso      1.000     O          -0.2404   
         O21       1.0000    0.97819   0.98165   0.85631   Biso      1.000     O          -0.57207  
         O22       1.0000    0.48794   0.21364   0.06286   Biso      1.000     O          -0.899289           
         O23       1.0000    0.21364   0.48794   0.23556   Biso      1.000     O          -0.89983  
         O24       1.0000    0.21125   0.65251   0.01943   Biso      1.000     O          -0.585455           
         O25       1.0000    0.24017   0.80937   0.89803   Biso      1.000     O          -0.617284           
         O26       1.0000    0.39369   0.06615   0.27181   Biso      1.000     O          -0.57186  
         O27       1.0000    0.55928   0.02584   0.27292   Biso      1.000     O          -0.591038           
         O28       1.0000    0.72051   0.07169   0.48269   Biso      1.000     O          -0.239865           
         O29       1.0000    0.76206   0.03636   0.18714   Biso      1.000     O          -0.899289           
         O30       1.0000    0.59749   0.03875   0.13319   Biso      1.000     O          -0.585517           
         O31       1.0000    0.44063   0.00983   0.19757   Biso      1.000     O          -0.616824           
         O32       1.0000    0.18385   0.85631   0.98165   Biso      1.000     O          -0.571723           
         O33       1.0000    0.22416   0.69072   0.10804   Biso      1.000     O          -0.589599           
         O34       1.0000    0.52489   0.76731   0.17831   Biso      1.000     O          -0.238851           
         O35       1.0000    0.27292   0.14196   0.55928   Biso      1.000     O          -0.590791           
         O36       1.0000    0.27181   0.26835   0.39369   Biso      1.000     O          -0.57207  
         O37       1.0000    0.89803   0.05243   0.24017   Biso      1.000     O          -0.615713           
         O38       1.0000    0.01943   0.11681   0.21125   Biso      1.000     O          -0.58528  
         O39       1.0000    0.23556   0.06286   0.21364   Biso      1.000     O          -0.898695           
         O40       1.0000    0.48269   0.72511   0.72051   Biso      1.000     O          -0.240483           
         O41       1.0000    0.65251   0.21125   0.11681   Biso      1.000     O          -0.585517           
         O42       1.0000    0.80937   0.24017   0.05243   Biso      1.000     O          -0.616824           
         O43       1.0000    0.06615   0.39369   0.26835   Biso      1.000     O          -0.571723           
         O44       1.0000    0.02584   0.55928   0.14196   Biso      1.000     O          -0.589599           
         O45       1.0000    0.72511   0.48269   0.07169   Biso      1.000     O          -0.238851           
         O46       1.0000    0.35197   0.19757   0.00983   Biso      1.000     O          -0.615713           
         O47       1.0000    0.23057   0.13319   0.03875   Biso      1.000     O          -0.58528  
         O48       1.0000    0.17831   0.52949   0.52489   Biso      1.000     O          -0.240401 