
##########################################################################
#               Crystallographic Information Format file
#               Produced by PyCifRW module
#
#  This is a CIF file.  CIF has been adopted by the International
#  Union of Crystallography as the standard for data archiving and
#  transmission.
#
#  For information on this file format, follow the CIF links at
#  http://www.iucr.org
##########################################################################

data_image0

_cell_length_a                          11.6335
_cell_length_b                          16.7961
_cell_length_c                          18.1575
_cell_angle_alpha                       90
_cell_angle_beta                        90
_cell_angle_gamma                       90
_symmetry_space_group_name_H-M          'P 1'
_symmetry_int_tables_number             1
loop_
  _symmetry_equiv_pos_as_xyz
         'x, y, z' 
loop_
  _atom_site_label
  _atom_site_occupancy
  _atom_site_fract_x
  _atom_site_fract_y
  _atom_site_fract_z
  _atom_site_thermal_displace_type
  _atom_site_B_iso_or_equiv
  _atom_site_type_symbol
  _atom_site_charge
         C1        1.0000    0.24440   0.04350   0.54540   Biso      1.000     C          0.114755  
         C2        1.0000    0.24560   0.85610   0.23960   Biso      1.000     C          0.094474  
         C3        1.0000    0.32110   0.80200   0.90230   Biso      1.000     C          -0.195405           
         C4        1.0000    0.12440   0.45500   0.04730   Biso      1.000     C          -0.16485  
         C5        1.0000    0.24440   0.45650   0.04540   Biso      1.000     C          0.114753  
         C6        1.0000    0.24680   0.07100   0.86510   Biso      1.000     C          0.12359300000000001           
         C7        1.0000    0.12750   0.06730   0.86560   Biso      1.000     C          -0.167796           
         C8        1.0000    0.06490   0.10380   0.81090   Biso      1.000     C          0.10660499999999999           
         C9        1.0000    0.12600   0.14330   0.75690   Biso      1.000     C          -0.188228           
         C10       1.0000    0.24560   0.14390   0.76040   Biso      1.000     C          0.09446900000000001           
         C11       1.0000    0.32110   0.19800   0.09770   Biso      1.000     C          -0.19539700000000002          
         C12       1.0000    0.12440   0.04500   0.54730   Biso      1.000     C          -0.164851           
         C13       1.0000    0.50000   0.26050   0.70500   Biso      1.000     C          -0.063319           
         C14       1.0000    0.24680   0.42900   0.36510   Biso      1.000     C          0.123583  
         C15       1.0000    0.12750   0.43270   0.36560   Biso      1.000     C          -0.167799           
         C16       1.0000    0.12600   0.85670   0.24310   Biso      1.000     C          -0.188225           
         C17       1.0000    0.06490   0.39620   0.31090   Biso      1.000     C          0.10659600000000001           
         C18       1.0000    0.24560   0.35610   0.26040   Biso      1.000     C          0.094451  
         C19       1.0000    0.32110   0.30200   0.59770   Biso      1.000     C          -0.195402           
         C20       1.0000    0.12440   0.95500   0.45270   Biso      1.000     C          -0.164854           
         C21       1.0000    0.24440   0.95650   0.45460   Biso      1.000     C          0.114751  
         C22       1.0000    0.24680   0.57100   0.63490   Biso      1.000     C          0.123591  
         C23       1.0000    0.12750   0.56730   0.63440   Biso      1.000     C          -0.167796           
         C24       1.0000    0.06490   0.60380   0.68910   Biso      1.000     C          0.10660599999999999           
         C25       1.0000    0.12600   0.64330   0.74310   Biso      1.000     C          -0.188228           
         C26       1.0000    0.24560   0.64390   0.73960   Biso      1.000     C          0.094473  
         C27       1.0000    0.32110   0.69800   0.40230   Biso      1.000     C          -0.195403           
         C28       1.0000    0.87560   0.45500   0.04730   Biso      1.000     C          -0.164848           
         C29       1.0000    0.75560   0.45650   0.04540   Biso      1.000     C          0.11475199999999999           
         C30       1.0000    0.75320   0.07100   0.86510   Biso      1.000     C          0.12359300000000001           
         C31       1.0000    0.87250   0.06730   0.86560   Biso      1.000     C          -0.167796           
         C32       1.0000    0.12600   0.35670   0.25690   Biso      1.000     C          -0.18823199999999998          
         C33       1.0000    0.93510   0.10380   0.81090   Biso      1.000     C          0.10660399999999999           
         C34       1.0000    0.06490   0.89620   0.18910   Biso      1.000     C          0.106607  
         C35       1.0000    0.24680   0.92900   0.13490   Biso      1.000     C          0.123597  
         C36       1.0000    0.50000   0.58110   0.36450   Biso      1.000     C          -0.037344999999999996         
         C37       1.0000    0.50000   0.73950   0.29500   Biso      1.000     C          -0.063317           
         C38       1.0000    0.50000   0.81290   0.43690   Biso      1.000     C          0.016544999999999997          
         C39       1.0000    0.50000   0.66130   0.51040   Biso      1.000     C          -0.038329           
         C40       1.0000    0.50000   0.08110   0.13550   Biso      1.000     C          -0.037346           
         C41       1.0000    0.50000   0.23950   0.20500   Biso      1.000     C          -0.063303           
         C42       1.0000    0.50000   0.31290   0.06310   Biso      1.000     C          0.016554  
         C43       1.0000    0.50000   0.16130   0.98960   Biso      1.000     C          -0.038327999999999994         
         C44       1.0000    0.50000   0.91890   0.86450   Biso      1.000     C          -0.037363           
         C45       1.0000    0.50000   0.76050   0.79500   Biso      1.000     C          -0.063324           
         C46       1.0000    0.50000   0.68710   0.93690   Biso      1.000     C          0.016551  
         C47       1.0000    0.50000   0.83870   0.01040   Biso      1.000     C          -0.038327999999999994         
         C48       1.0000    0.87560   0.95500   0.45270   Biso      1.000     C          -0.164854           
         C49       1.0000    0.75560   0.95650   0.45460   Biso      1.000     C          0.114751  
         C50       1.0000    0.12750   0.93270   0.13440   Biso      1.000     C          -0.16778800000000002          
         C51       1.0000    0.75320   0.57100   0.63490   Biso      1.000     C          0.123591  
         C52       1.0000    0.93510   0.60380   0.68910   Biso      1.000     C          0.106602  
         C53       1.0000    0.87400   0.64330   0.74310   Biso      1.000     C          -0.188228           
         C54       1.0000    0.75440   0.64390   0.73960   Biso      1.000     C          0.094473  
         C55       1.0000    0.67890   0.69800   0.40230   Biso      1.000     C          -0.195403           
         C56       1.0000    0.87560   0.04500   0.54730   Biso      1.000     C          -0.164851           
         C57       1.0000    0.75560   0.04350   0.54540   Biso      1.000     C          0.114755  
         C58       1.0000    0.75320   0.42900   0.36510   Biso      1.000     C          0.123583  
         C59       1.0000    0.87250   0.43270   0.36560   Biso      1.000     C          -0.167799           
         C60       1.0000    0.93510   0.39620   0.31090   Biso      1.000     C          0.106599  
         C61       1.0000    0.87400   0.35670   0.25690   Biso      1.000     C          -0.18823399999999998          
         C62       1.0000    0.75440   0.35610   0.26040   Biso      1.000     C          0.094454  
         C63       1.0000    0.67890   0.30200   0.59770   Biso      1.000     C          -0.195402           
         C64       1.0000    0.12440   0.54500   0.95270   Biso      1.000     C          -0.164848           
         C65       1.0000    0.24440   0.54350   0.95460   Biso      1.000     C          0.11475899999999999           
         C66       1.0000    0.87250   0.56730   0.63440   Biso      1.000     C          -0.167793           
         C67       1.0000    0.87400   0.14330   0.75690   Biso      1.000     C          -0.188229           
         C68       1.0000    0.75440   0.14390   0.76040   Biso      1.000     C          0.09446900000000001           
         C69       1.0000    0.67890   0.19800   0.09770   Biso      1.000     C          -0.19539700000000002          
         C70       1.0000    0.93690   0.00000   0.50000   Biso      1.000     C          0.123221  
         C71       1.0000    0.06310   0.50000   0.00000   Biso      1.000     C          0.123223  
         C72       1.0000    0.06310   0.00000   0.50000   Biso      1.000     C          0.123221  
         C73       1.0000    0.93690   0.50000   0.00000   Biso      1.000     C          0.123204  
         C74       1.0000    0.50000   0.41890   0.63550   Biso      1.000     C          -0.037357999999999995         
         C75       1.0000    0.50000   0.33870   0.48960   Biso      1.000     C          -0.038323           
         C76       1.0000    0.67890   0.80200   0.90230   Biso      1.000     C          -0.195405           
         C77       1.0000    0.50000   0.18710   0.56310   Biso      1.000     C          0.016547  
         C78       1.0000    0.75440   0.85610   0.23960   Biso      1.000     C          0.094474  
         C79       1.0000    0.87560   0.54500   0.95270   Biso      1.000     C          -0.164829           
         C80       1.0000    0.75560   0.54350   0.95460   Biso      1.000     C          0.114756  
         C81       1.0000    0.75320   0.92900   0.13490   Biso      1.000     C          0.123597  
         C82       1.0000    0.87250   0.93270   0.13440   Biso      1.000     C          -0.167791           
         C83       1.0000    0.93510   0.89620   0.18910   Biso      1.000     C          0.10660599999999999           
         C84       1.0000    0.87400   0.85670   0.24310   Biso      1.000     C          -0.188224           
         Cr1       1.0000    0.50000   0.69640   0.40096   Biso      1.000     Cr          0.703221  
         Cr2       1.0000    0.50000   0.30360   0.59904   Biso      1.000     Cr          0.70322   
         Cr3       1.0000    0.50000   0.80360   0.90096   Biso      1.000     Cr          0.703212  
         Cr4       1.0000    0.50000   0.19640   0.09904   Biso      1.000     Cr          0.7032189999999999  
         H1        1.0000    0.71610   0.42440   0.07860   Biso      1.000     H          0.09073099999999999           
         H2        1.0000    0.28390   0.92440   0.42140   Biso      1.000     H          0.090728  
         H3        1.0000    0.28740   0.54640   0.59710   Biso      1.000     H          0.10444   
         H4        1.0000    0.08980   0.53990   0.59700   Biso      1.000     H          0.135319  
         H5        1.0000    0.08780   0.66910   0.78130   Biso      1.000     H          0.134756  
         H6        1.0000    0.28580   0.67090   0.77630   Biso      1.000     H          0.095192  
         H7        1.0000    0.91330   0.42290   0.08130   Biso      1.000     H          0.129915  
         H8        1.0000    0.71260   0.04640   0.90290   Biso      1.000     H          0.10443399999999999           
         H9        1.0000    0.91330   0.92290   0.41870   Biso      1.000     H          0.129912  
         H10       1.0000    0.91220   0.16910   0.71870   Biso      1.000     H          0.134759  
         H11       1.0000    0.71420   0.17090   0.72370   Biso      1.000     H          0.095195  
         H12       1.0000    0.91330   0.57710   0.91870   Biso      1.000     H          0.129914  
         H13       1.0000    0.08670   0.92290   0.41870   Biso      1.000     H          0.129912  
         H14       1.0000    0.71260   0.95360   0.09710   Biso      1.000     H          0.10444   
         H15       1.0000    0.91020   0.96010   0.09700   Biso      1.000     H          0.13531700000000002           
         H16       1.0000    0.91220   0.83090   0.28130   Biso      1.000     H          0.134762  
         H17       1.0000    0.71420   0.82910   0.27630   Biso      1.000     H          0.095199  
         H18       1.0000    0.91020   0.03990   0.90300   Biso      1.000     H          0.135312  
         H19       1.0000    0.71610   0.57560   0.92140   Biso      1.000     H          0.09073099999999999           
         H20       1.0000    0.28580   0.32910   0.22370   Biso      1.000     H          0.095185  
         H21       1.0000    0.08980   0.46010   0.40300   Biso      1.000     H          0.135302  
         H22       1.0000    0.71610   0.92440   0.42140   Biso      1.000     H          0.090728  
         H23       1.0000    0.71260   0.54640   0.59710   Biso      1.000     H          0.10444   
         H24       1.0000    0.91020   0.53990   0.59700   Biso      1.000     H          0.135319  
         H25       1.0000    0.91220   0.66910   0.78130   Biso      1.000     H          0.134756  
         H26       1.0000    0.71420   0.67090   0.77630   Biso      1.000     H          0.095192  
         H27       1.0000    0.91330   0.07710   0.58130   Biso      1.000     H          0.129915  
         H28       1.0000    0.71610   0.07560   0.57860   Biso      1.000     H          0.09072999999999999           
         H29       1.0000    0.71260   0.45360   0.40290   Biso      1.000     H          0.104424  
         H30       1.0000    0.91020   0.46010   0.40300   Biso      1.000     H          0.135303  
         H31       1.0000    0.91220   0.33090   0.21870   Biso      1.000     H          0.134744  
         H32       1.0000    0.71420   0.32910   0.22370   Biso      1.000     H          0.095185  
         H33       1.0000    0.08670   0.57710   0.91870   Biso      1.000     H          0.129915  
         H34       1.0000    0.28390   0.57560   0.92140   Biso      1.000     H          0.09073099999999999           
         H35       1.0000    0.28740   0.95360   0.09710   Biso      1.000     H          0.10444   
         H36       1.0000    0.08980   0.96010   0.09700   Biso      1.000     H          0.13531600000000002           
         H37       1.0000    0.08780   0.83090   0.28130   Biso      1.000     H          0.134761  
         H38       1.0000    0.28580   0.82910   0.27630   Biso      1.000     H          0.095199  
         H39       1.0000    0.08670   0.42290   0.08130   Biso      1.000     H          0.129915  
         H40       1.0000    0.28390   0.42440   0.07860   Biso      1.000     H          0.09073099999999999           
         H41       1.0000    0.28740   0.04640   0.90290   Biso      1.000     H          0.10443399999999999           
         H42       1.0000    0.08980   0.03990   0.90300   Biso      1.000     H          0.135312  
         H43       1.0000    0.08780   0.16910   0.71870   Biso      1.000     H          0.134759  
         H44       1.0000    0.28580   0.17090   0.72370   Biso      1.000     H          0.095195  
         H45       1.0000    0.28390   0.07560   0.57860   Biso      1.000     H          0.09072999999999999           
         H46       1.0000    0.28740   0.45360   0.40290   Biso      1.000     H          0.104424  
         H47       1.0000    0.08780   0.33090   0.21870   Biso      1.000     H          0.134745  
         H48       1.0000    0.08670   0.07710   0.58130   Biso      1.000     H          0.129915  
         Mn1       1.0000    0.50000   0.89026   0.18434   Biso      1.000     Mn          0.7852140000000001  
         Mn2       1.0000    0.50000   0.00000   0.50000   Biso      1.000     Mn          0.937941  
         Mn3       1.0000    0.50000   0.50000   0.00000   Biso      1.000     Mn          0.9379559999999999  
         Mn4       1.0000    0.50000   0.39026   0.31566   Biso      1.000     Mn          0.785263  
         Mn5       1.0000    0.50000   0.60974   0.68434   Biso      1.000     Mn          0.785194  
         Mn6       1.0000    0.50000   0.10974   0.81566   Biso      1.000     Mn          0.785203  
         N1        1.0000    0.50000   0.98250   0.84300   Biso      1.000     N          -0.344501           
         N2        1.0000    0.50000   0.14550   0.93040   Biso      1.000     N          -0.308581           
         N3        1.0000    0.50000   0.38010   0.04750   Biso      1.000     N          -0.417983           
         N4        1.0000    0.50000   0.27300   0.26120   Biso      1.000     N          -0.34186300000000003          
         N5        1.0000    0.50000   0.01750   0.15700   Biso      1.000     N          -0.344478           
         N6        1.0000    0.50000   0.64550   0.56960   Biso      1.000     N          -0.308583           
         N7        1.0000    0.50000   0.88010   0.45250   Biso      1.000     N          -0.41799200000000003          
         N8        1.0000    0.50000   0.35450   0.43040   Biso      1.000     N          -0.3086   
         N9        1.0000    0.50000   0.51750   0.34300   Biso      1.000     N          -0.344492           
         N10       1.0000    0.50000   0.72700   0.73880   Biso      1.000     N          -0.34187399999999996          
         N11       1.0000    0.50000   0.11990   0.54750   Biso      1.000     N          -0.417996           
         N12       1.0000    0.50000   0.22700   0.76120   Biso      1.000     N          -0.341866           
         N13       1.0000    0.50000   0.48250   0.65700   Biso      1.000     N          -0.344485           
         N14       1.0000    0.69530   0.50000   0.00000   Biso      1.000     N          -0.24795799999999998          
         N15       1.0000    0.30470   0.00000   0.50000   Biso      1.000     N          -0.247954           
         N16       1.0000    0.50000   0.77300   0.23880   Biso      1.000     N          -0.341856           
         N17       1.0000    0.50000   0.61990   0.95250   Biso      1.000     N          -0.418009           
         N18       1.0000    0.69510   0.60840   0.68720   Biso      1.000     N          -0.22354200000000002          
         N19       1.0000    0.30470   0.50000   0.00000   Biso      1.000     N          -0.24795799999999998          
         N20       1.0000    0.77850   0.80090   0.90460   Biso      1.000     N          -0.338596           
         N21       1.0000    0.69510   0.89160   0.18720   Biso      1.000     N          -0.223539           
         N22       1.0000    0.77850   0.19910   0.09540   Biso      1.000     N          -0.338568           
         N23       1.0000    0.69510   0.10840   0.81280   Biso      1.000     N          -0.22354200000000002          
         N24       1.0000    0.22150   0.69910   0.40460   Biso      1.000     N          -0.338579           
         N25       1.0000    0.30490   0.60840   0.68720   Biso      1.000     N          -0.22354200000000002          
         N26       1.0000    0.22150   0.30090   0.59540   Biso      1.000     N          -0.33858  
         N27       1.0000    0.30490   0.39160   0.31280   Biso      1.000     N          -0.22354699999999997          
         N28       1.0000    0.22150   0.19910   0.09540   Biso      1.000     N          -0.338568           
         N29       1.0000    0.30490   0.10840   0.81280   Biso      1.000     N          -0.22354200000000002          
         N30       1.0000    0.22150   0.80090   0.90460   Biso      1.000     N          -0.338596           
         N31       1.0000    0.30490   0.89160   0.18720   Biso      1.000     N          -0.223539           
         N32       1.0000    0.77850   0.30090   0.59540   Biso      1.000     N          -0.33858  
         N33       1.0000    0.69510   0.39160   0.31280   Biso      1.000     N          -0.223548           
         N34       1.0000    0.77850   0.69910   0.40460   Biso      1.000     N          -0.338579           
         N35       1.0000    0.50000   0.85450   0.06960   Biso      1.000     N          -0.308607           
         N36       1.0000    0.69530   0.00000   0.50000   Biso      1.000     N          -0.247954 