
##########################################################################
#               Crystallographic Information Format file
#               Produced by PyCifRW module
#
#  This is a CIF file.  CIF has been adopted by the International
#  Union of Crystallography as the standard for data archiving and
#  transmission.
#
#  For information on this file format, follow the CIF links at
#  http://www.iucr.org
##########################################################################

data_image0

_cell_length_a                          12.148
_cell_length_b                          13.123
_cell_length_c                          13.98
_cell_angle_alpha                       75.633
_cell_angle_beta                        64.45
_cell_angle_gamma                       67.616
_symmetry_space_group_name_H-M          'P 1'
_symmetry_int_tables_number             1
loop_
  _symmetry_equiv_pos_as_xyz
         'x, y, z' 
loop_
  _atom_site_label
  _atom_site_occupancy
  _atom_site_fract_x
  _atom_site_fract_y
  _atom_site_fract_z
  _atom_site_thermal_displace_type
  _atom_site_B_iso_or_equiv
  _atom_site_type_symbol
  _atom_site_charge
         C1        1.0000    0.99550   0.76490   0.60480   Biso      1.000     C          -0.058094           
         C2        1.0000    0.06960   0.66720   0.65870   Biso      1.000     C          0.573461  
         C3        1.0000    0.89690   0.76270   0.58240   Biso      1.000     C          -0.042299           
         C4        1.0000    0.83370   0.85680   0.53280   Biso      1.000     C          -0.117599           
         C5        1.0000    0.87250   0.94850   0.50090   Biso      1.000     C          -0.146728           
         C6        1.0000    0.97670   0.95160   0.51820   Biso      1.000     C          0.055426  
         C7        1.0000    0.03350   0.85570   0.57440   Biso      1.000     C          -0.178573           
         C8        1.0000    0.95200   0.46720   0.86170   Biso      1.000     C          0.081429  
         C9        1.0000    0.85030   0.66050   0.61660   Biso      1.000     C          0.605734  
         C10       1.0000    0.46390   0.24920   0.47870   Biso      1.000     C          -0.037337           
         C11       1.0000    0.44380   0.15020   0.52290   Biso      1.000     C          -0.184043           
         C12       1.0000    0.51530   0.05370   0.47680   Biso      1.000     C          0.065389  
         C13       1.0000    0.62290   0.05750   0.38370   Biso      1.000     C          -0.160962           
         C14       1.0000    0.64860   0.15460   0.33720   Biso      1.000     C          -0.123915           
         C15       1.0000    0.56840   0.25380   0.38240   Biso      1.000     C          -0.023428           
         C16       1.0000    0.37070   0.35250   0.52990   Biso      1.000     C          0.612579  
         C17       1.0000    0.60440   0.36080   0.33090   Biso      1.000     C          0.603658  
         C18       1.0000    0.85610   0.42360   0.93790   Biso      1.000     C          -0.125671           
         C19       1.0000    0.00790   0.31430   0.01830   Biso      1.000     C          -0.180351           
         C20       1.0000    0.40960   0.36520   0.88400   Biso      1.000     C          0.00197   
         C21       1.0000    0.39560   0.30470   0.97880   Biso      1.000     C          -0.126106           
         C22       1.0000    0.23290   0.22110   0.11110   Biso      1.000     C          -0.105231           
         C23       1.0000    0.28180   0.09820   0.09340   Biso      1.000     C          -0.193729           
         C24       1.0000    0.25350   0.02380   0.19680   Biso      1.000     C          -0.195872           
         C25       1.0000    0.32130   0.90280   0.17490   Biso      1.000     C          -0.108928           
         C26       1.0000    0.88840   0.34450   0.01570   Biso      1.000     C          -0.010295           
         C27       1.0000    0.96130   0.69190   0.31240   Biso      1.000     C          0.119206  
         C28       1.0000    0.95520   0.86080   0.20830   Biso      1.000     C          -0.02699  
         C29       1.0000    0.05920   0.85880   0.22130   Biso      1.000     C          -0.187427           
         C30       1.0000    0.10850   0.77070   0.28340   Biso      1.000     C          0.181735  
         C31       1.0000    0.21680   0.76250   0.31170   Biso      1.000     C          0.161981  
         C32       1.0000    0.34620   0.70010   0.39670   Biso      1.000     C          0.01202   
         C33       1.0000    0.38240   0.78290   0.32600   Biso      1.000     C          -0.094148           
         C34       1.0000    0.90310   0.77890   0.25090   Biso      1.000     C          -0.136946           
         C35       1.0000    0.61760   0.21710   0.67400   Biso      1.000     C          -0.094174           
         C36       1.0000    0.65380   0.29990   0.60330   Biso      1.000     C          0.012046  
         C37       1.0000    0.78320   0.23750   0.68830   Biso      1.000     C          0.161982  
         C38       1.0000    0.10310   0.23730   0.41760   Biso      1.000     C          -0.042305           
         C39       1.0000    0.16630   0.14320   0.46720   Biso      1.000     C          -0.117598           
         C40       1.0000    0.12750   0.05150   0.49910   Biso      1.000     C          -0.146728           
         C41       1.0000    0.02330   0.04840   0.48180   Biso      1.000     C          0.055429  
         C42       1.0000    0.96650   0.14430   0.42560   Biso      1.000     C          -0.178596           
         C43       1.0000    0.14970   0.33950   0.38340   Biso      1.000     C          0.605734  
         C44       1.0000    0.00450   0.23510   0.39520   Biso      1.000     C          -0.058066           
         C45       1.0000    0.62930   0.64750   0.47010   Biso      1.000     C          0.612578  
         C46       1.0000    0.55620   0.84980   0.47710   Biso      1.000     C          -0.184053           
         C47       1.0000    0.48470   0.94630   0.52320   Biso      1.000     C          0.06539   
         C48       1.0000    0.37710   0.94250   0.61630   Biso      1.000     C          -0.160962           
         C49       1.0000    0.35140   0.84540   0.66280   Biso      1.000     C          -0.123915           
         C50       1.0000    0.43160   0.74620   0.61760   Biso      1.000     C          -0.023429           
         C51       1.0000    0.39560   0.63920   0.66910   Biso      1.000     C          0.603658  
         C52       1.0000    0.53610   0.75080   0.52130   Biso      1.000     C          -0.037326           
         C53       1.0000    0.93040   0.33280   0.34130   Biso      1.000     C          0.573459  
         C54       1.0000    0.04800   0.53280   0.13830   Biso      1.000     C          0.081429  
         C55       1.0000    0.14390   0.57640   0.06210   Biso      1.000     C          -0.125671           
         C56       1.0000    0.89150   0.22930   0.71660   Biso      1.000     C          0.181734  
         C57       1.0000    0.94080   0.14120   0.77870   Biso      1.000     C          -0.187453           
         C58       1.0000    0.04480   0.13920   0.79170   Biso      1.000     C          -0.02696  
         C59       1.0000    0.09690   0.22110   0.74910   Biso      1.000     C          -0.136949           
         C60       1.0000    0.03870   0.30810   0.68760   Biso      1.000     C          0.119206  
         C61       1.0000    0.67870   0.09720   0.82510   Biso      1.000     C          -0.108928           
         C62       1.0000    0.74650   0.97620   0.80320   Biso      1.000     C          -0.195872           
         C63       1.0000    0.71820   0.90180   0.90660   Biso      1.000     C          -0.193729           
         C64       1.0000    0.76710   0.77890   0.88890   Biso      1.000     C          -0.10523  
         C65       1.0000    0.60440   0.69530   0.02120   Biso      1.000     C          -0.126132           
         C66       1.0000    0.59040   0.63480   0.11600   Biso      1.000     C          0.001997  
         C67       1.0000    0.77810   0.65580   0.05940   Biso      1.000     C          0.182905  
         C68       1.0000    0.90150   0.63720   0.05840   Biso      1.000     C          0.160099  
         C69       1.0000    0.99210   0.68570   0.98170   Biso      1.000     C          -0.180351           
         C70       1.0000    0.11160   0.65550   0.98430   Biso      1.000     C          -0.010294           
         C71       1.0000    0.22190   0.34420   0.94060   Biso      1.000     C          0.182905  
         C72       1.0000    0.09850   0.36280   0.94160   Biso      1.000     C          0.1601    
         Cd1       1.0000    0.15062   0.55385   0.44913   Biso      1.000     Cd          0.966738  
         Cd2       1.0000    0.24978   0.49186   0.72287   Biso      1.000     Cd          0.90473   
         Cd3       1.0000    0.84938   0.44615   0.55087   Biso      1.000     Cd          0.966737  
         Cd4       1.0000    0.75022   0.50814   0.27713   Biso      1.000     Cd          0.90473   
         H1        1.0000    0.32190   0.00760   0.64720   Biso      1.000     H          0.098874  
         H2        1.0000    0.82900   0.01040   0.46680   Biso      1.000     H          0.108808  
         H3        1.0000    0.76360   0.85750   0.52100   Biso      1.000     H          0.11366   
         H4        1.0000    0.93380   0.51920   0.80740   Biso      1.000     H          0.100532  
         H5        1.0000    0.77430   0.44660   0.93630   Biso      1.000     H          0.134172  
         H6        1.0000    0.82830   0.31170   0.06670   Biso      1.000     H          0.123364  
         H7        1.0000    0.02880   0.26150   0.07110   Biso      1.000     H          0.123385  
         H8        1.0000    0.48180   0.38680   0.84020   Biso      1.000     H          0.125492  
         H9        1.0000    0.45300   0.27900   0.01340   Biso      1.000     H          0.146618  
         H10       1.0000    0.13970   0.24560   0.14180   Biso      1.000     H          0.110326  
         H11       1.0000    0.26320   0.22990   0.16140   Biso      1.000     H          0.125005  
         H12       1.0000    0.24170   0.08800   0.05110   Biso      1.000     H          0.096901  
         H13       1.0000    0.16160   0.03680   0.23200   Biso      1.000     H          0.11047   
         H14       1.0000    0.09990   0.85530   0.59110   Biso      1.000     H          0.118719  
         H15       1.0000    0.28280   0.04080   0.24370   Biso      1.000     H          0.120224  
         H16       1.0000    0.29120   0.88700   0.12790   Biso      1.000     H          0.100278  
         H17       1.0000    0.41280   0.89150   0.13800   Biso      1.000     H          0.102361  
         H18       1.0000    0.92680   0.63400   0.34400   Biso      1.000     H          0.099816  
         H19       1.0000    0.83230   0.77950   0.24040   Biso      1.000     H          0.127467  
         H20       1.0000    0.91820   0.92110   0.16840   Biso      1.000     H          0.105453  
         H21       1.0000    0.09640   0.91510   0.18930   Biso      1.000     H          0.124105  
         H22       1.0000    0.38220   0.65860   0.44640   Biso      1.000     H          0.130363  
         H23       1.0000    0.44920   0.80770   0.31590   Biso      1.000     H          0.134625  
         H24       1.0000    0.27980   0.84520   0.72520   Biso      1.000     H          0.10941   
         H25       1.0000    0.37700   0.14810   0.58860   Biso      1.000     H          0.10063   
         H26       1.0000    0.37380   0.07660   0.05340   Biso      1.000     H          0.095781  
         H27       1.0000    0.72020   0.15480   0.27480   Biso      1.000     H          0.109411  
         H28       1.0000    0.67810   0.99240   0.35280   Biso      1.000     H          0.098874  
         H29       1.0000    0.62300   0.85190   0.41140   Biso      1.000     H          0.100631  
         H30       1.0000    0.90010   0.14470   0.40890   Biso      1.000     H          0.11872   
         H31       1.0000    0.17100   0.98960   0.53320   Biso      1.000     H          0.108807  
         H32       1.0000    0.23640   0.14250   0.47900   Biso      1.000     H          0.11366   
         H33       1.0000    0.06620   0.48080   0.19260   Biso      1.000     H          0.100532  
         H34       1.0000    0.22570   0.55340   0.06370   Biso      1.000     H          0.134172  
         H35       1.0000    0.17170   0.68830   0.93330   Biso      1.000     H          0.123364  
         H36       1.0000    0.97120   0.73850   0.92890   Biso      1.000     H          0.123385  
         H37       1.0000    0.51820   0.61320   0.15980   Biso      1.000     H          0.12549   
         H38       1.0000    0.86030   0.75440   0.85820   Biso      1.000     H          0.110326  
         H39       1.0000    0.73680   0.77010   0.83860   Biso      1.000     H          0.125005  
         H40       1.0000    0.54700   0.72100   0.98660   Biso      1.000     H          0.14662   
         H41       1.0000    0.62620   0.92340   0.94660   Biso      1.000     H          0.095781  
         H42       1.0000    0.83840   0.96320   0.76800   Biso      1.000     H          0.11047   
         H43       1.0000    0.71720   0.95920   0.75630   Biso      1.000     H          0.120224  
         H44       1.0000    0.70880   0.11300   0.87210   Biso      1.000     H          0.100278  
         H45       1.0000    0.58720   0.10850   0.86200   Biso      1.000     H          0.102361  
         H46       1.0000    0.07320   0.36600   0.65600   Biso      1.000     H          0.099816  
         H47       1.0000    0.16770   0.22050   0.75960   Biso      1.000     H          0.127467  
         H48       1.0000    0.75830   0.91200   0.94890   Biso      1.000     H          0.096901  
         H49       1.0000    0.08180   0.07890   0.83160   Biso      1.000     H          0.105451  
         H50       1.0000    0.90360   0.08490   0.81070   Biso      1.000     H          0.124107  
         H51       1.0000    0.61780   0.34140   0.55360   Biso      1.000     H          0.130361  
         H52       1.0000    0.55080   0.19230   0.68410   Biso      1.000     H          0.134627  
         N1        1.0000    0.69920   0.17660   0.72830   Biso      1.000     N          0.010548  
         N2        1.0000    0.92940   0.56360   0.13560   Biso      1.000     N          -0.284554           
         N3        1.0000    0.72500   0.71140   0.98540   Biso      1.000     N          0.027398  
         N4        1.0000    0.75250   0.31280   0.61680   Biso      1.000     N          -0.316735           
         N5        1.0000    0.69690   0.60920   0.13930   Biso      1.000     N          -0.320206           
         N6        1.0000    0.93630   0.31170   0.67240   Biso      1.000     N          -0.272456           
         N7        1.0000    0.06370   0.68830   0.32760   Biso      1.000     N          -0.272457           
         N8        1.0000    0.30310   0.39080   0.86070   Biso      1.000     N          -0.320203           
         N9        1.0000    0.07060   0.43640   0.86440   Biso      1.000     N          -0.284554           
         N10       1.0000    0.30080   0.82340   0.27170   Biso      1.000     N          0.010546  
         N11       1.0000    0.24750   0.68720   0.38320   Biso      1.000     N          -0.316731           
         N12       1.0000    0.27500   0.28860   0.01460   Biso      1.000     N          0.027396  
         O1        1.0000    0.66760   0.56420   0.53260   Biso      1.000     O          -0.572778           
         O2        1.0000    0.66660   0.65430   0.37130   Biso      1.000     O          -0.563078           
         O3        1.0000    0.23300   0.34820   0.29640   Biso      1.000     O          -0.558841           
         O4        1.0000    0.09360   0.40920   0.44970   Biso      1.000     O          -0.591272           
         O5        1.0000    0.89450   0.42810   0.37610   Biso      1.000     O          -0.583179           
         O6        1.0000    0.90490   0.32250   0.26880   Biso      1.000     O          -0.524632           
         O7        1.0000    0.62190   0.38350   0.23410   Biso      1.000     O          -0.624557           
         O8        1.0000    0.33240   0.43580   0.46740   Biso      1.000     O          -0.572777           
         O9        1.0000    0.33340   0.34570   0.62870   Biso      1.000     O          -0.563078           
         O10       1.0000    0.76700   0.65180   0.70360   Biso      1.000     O          -0.558841           
         O11       1.0000    0.90640   0.59080   0.55030   Biso      1.000     O          -0.591272           
         O12       1.0000    0.10550   0.57190   0.62390   Biso      1.000     O          -0.583178           
         O13       1.0000    0.09510   0.67750   0.73120   Biso      1.000     O          -0.524633           
         O14       1.0000    0.37860   0.58900   0.61830   Biso      1.000     O          -0.536889           
         O15       1.0000    0.62140   0.41100   0.38170   Biso      1.000     O          -0.536889           
         O16       1.0000    0.37810   0.61650   0.76590   Biso      1.000     O          -0.624557 