
##########################################################################
#               Crystallographic Information Format file
#               Produced by PyCifRW module
#
#  This is a CIF file.  CIF has been adopted by the International
#  Union of Crystallography as the standard for data archiving and
#  transmission.
#
#  For information on this file format, follow the CIF links at
#  http://www.iucr.org
##########################################################################

data_image0

_cell_length_a                          9.182
_cell_length_b                          9.687
_cell_length_c                          10.639
_cell_angle_alpha                       106.807
_cell_angle_beta                        95.625
_cell_angle_gamma                       118.06
_symmetry_space_group_name_H-M          'P 1'
_symmetry_int_tables_number             1
loop_
  _symmetry_equiv_pos_as_xyz
         'x, y, z' 
loop_
  _atom_site_label
  _atom_site_occupancy
  _atom_site_fract_x
  _atom_site_fract_y
  _atom_site_fract_z
  _atom_site_thermal_displace_type
  _atom_site_B_iso_or_equiv
  _atom_site_type_symbol
  _atom_site_charge
         C1        1.0000    0.45920   0.37960   0.62450   Biso      1.000     C          -0.332017           
         C2        1.0000    0.95850   0.41420   0.32280   Biso      1.000     C          -0.340077           
         C3        1.0000    0.00930   0.41500   0.19240   Biso      1.000     C          0.739179  
         C4        1.0000    0.53720   0.49520   0.43960   Biso      1.000     C          -0.142546           
         C5        1.0000    0.54080   0.62040   0.37550   Biso      1.000     C          -0.332016           
         C6        1.0000    0.60710   0.59840   0.25210   Biso      1.000     C          0.713478  
         C7        1.0000    0.58320   0.17490   0.87770   Biso      1.000     C          0.662963  
         C8        1.0000    0.50250   0.98550   0.80960   Biso      1.000     C          -0.334108           
         C9        1.0000    0.30760   0.88460   0.78450   Biso      1.000     C          -0.150456           
         C10       1.0000    0.23510   0.69830   0.70070   Biso      1.000     C          -0.157677           
         C11       1.0000    0.04150   0.58580   0.67720   Biso      1.000     C          -0.34007600000000004          
         C12       1.0000    0.99070   0.58500   0.80760   Biso      1.000     C          0.739179  
         C13       1.0000    0.46280   0.50480   0.56040   Biso      1.000     C          -0.142546           
         C14       1.0000    0.49750   0.01450   0.19040   Biso      1.000     C          -0.334108           
         C15       1.0000    0.39290   0.40160   0.74790   Biso      1.000     C          0.71348   
         C16       1.0000    0.76490   0.30170   0.29930   Biso      1.000     C          -0.157675           
         C17       1.0000    0.69240   0.11540   0.21550   Biso      1.000     C          -0.150456           
         C18       1.0000    0.41680   0.82510   0.12230   Biso      1.000     C          0.6629649999999999  
         H1        1.0000    0.65560   0.52040   0.46970   Biso      1.000     H          0.098763  
         H2        1.0000    0.57650   0.40080   0.65140   Biso      1.000     H          0.138717  
         H3        1.0000    0.38410   0.26210   0.55680   Biso      1.000     H          0.141629  
         H4        1.0000    0.53230   0.62140   0.63050   Biso      1.000     H          0.100547  
         H5        1.0000    0.34440   0.47960   0.53030   Biso      1.000     H          0.098763  
         H6        1.0000    0.98140   0.62580   0.62870   Biso      1.000     H          0.129459  
         H7        1.0000    0.00300   0.46860   0.61760   Biso      1.000     H          0.146586  
         H8        1.0000    0.29480   0.65730   0.74810   Biso      1.000     H          0.097006  
         H9        1.0000    0.25970   0.68700   0.61090   Biso      1.000     H          0.094158  
         H10       1.0000    0.27950   0.89710   0.87300   Biso      1.000     H          0.09576599999999999           
         H11       1.0000    0.46770   0.37860   0.36950   Biso      1.000     H          0.100548  
         H12       1.0000    0.25460   0.92930   0.73500   Biso      1.000     H          0.090534  
         H13       1.0000    0.54670   0.94400   0.86290   Biso      1.000     H          0.145017  
         H14       1.0000    0.42350   0.59920   0.34860   Biso      1.000     H          0.138717  
         H15       1.0000    0.45330   0.05600   0.13710   Biso      1.000     H          0.145017  
         H16       1.0000    0.47870   0.05020   0.28320   Biso      1.000     H          0.12901700000000002           
         H17       1.0000    0.74540   0.07070   0.26500   Biso      1.000     H          0.090533  
         H18       1.0000    0.72050   0.10290   0.12700   Biso      1.000     H          0.09576599999999999           
         H19       1.0000    0.74030   0.31300   0.38910   Biso      1.000     H          0.094154  
         H20       1.0000    0.61590   0.73790   0.44320   Biso      1.000     H          0.14163   
         H21       1.0000    0.99700   0.53140   0.38240   Biso      1.000     H          0.146585  
         H22       1.0000    0.01860   0.37420   0.37130   Biso      1.000     H          0.12946   
         H23       1.0000    0.52130   0.94980   0.71680   Biso      1.000     H          0.12901400000000002           
         H24       1.0000    0.70520   0.34270   0.25190   Biso      1.000     H          0.097005  
         Nd1       1.0000    0.23498   0.45502   0.98180   Biso      1.000     Nd          2.095139  
         Nd2       1.0000    0.76502   0.54498   0.01820   Biso      1.000     Nd          2.095138  
         O1        1.0000    0.23740   0.36200   0.73380   Biso      1.000     O          -0.6741050000000001           
         O2        1.0000    0.49160   0.46570   0.86710   Biso      1.000     O          -0.754402           
         O3        1.0000    0.06210   0.54930   0.88950   Biso      1.000     O          -0.737632           
         O4        1.0000    0.87540   0.61770   0.83040   Biso      1.000     O          -0.691175           
         O5        1.0000    0.69180   0.27180   0.83010   Biso      1.000     O          -0.661747           
         O6        1.0000    0.54560   0.23730   0.98210   Biso      1.000     O          -0.6420170000000001           
         O7        1.0000    0.76260   0.63800   0.26620   Biso      1.000     O          -0.674104           
         O8        1.0000    0.50840   0.53430   0.13290   Biso      1.000     O          -0.754401           
         O9        1.0000    0.93790   0.45070   0.11050   Biso      1.000     O          -0.737632           
         O10       1.0000    0.12460   0.38230   0.16960   Biso      1.000     O          -0.691175           
         O11       1.0000    0.30820   0.72820   0.16990   Biso      1.000     O          -0.661748           
         O12       1.0000    0.45440   0.76270   0.01790   Biso      1.000     O          -0.642018 