
##########################################################################
#               Crystallographic Information Format file
#               Produced by PyCifRW module
#
#  This is a CIF file.  CIF has been adopted by the International
#  Union of Crystallography as the standard for data archiving and
#  transmission.
#
#  For information on this file format, follow the CIF links at
#  http://www.iucr.org
##########################################################################

data_image0

_cell_length_a                          9.241
_cell_length_b                          9.7459
_cell_length_c                          10.661
_cell_angle_alpha                       67.7116
_cell_angle_beta                        84.68
_cell_angle_gamma                       61.7352
_symmetry_space_group_name_H-M          'P 1'
_symmetry_int_tables_number             1
loop_
  _symmetry_equiv_pos_as_xyz
         'x, y, z' 
loop_
  _atom_site_label
  _atom_site_occupancy
  _atom_site_fract_x
  _atom_site_fract_y
  _atom_site_fract_z
  _atom_site_thermal_displace_type
  _atom_site_B_iso_or_equiv
  _atom_site_type_symbol
  _atom_site_charge
         C1        1.0000    0.51320   0.98650   0.18990   Biso      1.000     C          -0.35291100000000003          
         C2        1.0000    0.54450   0.41270   0.67920   Biso      1.000     C          -0.33216100000000004          
         C3        1.0000    0.00780   0.59490   0.74947   Biso      1.000     C          0.731322  
         C4        1.0000    0.46450   0.30060   0.70150   Biso      1.000     C          -0.13513699999999998          
         C5        1.0000    0.48680   0.01350   0.81010   Biso      1.000     C          -0.35291  
         C6        1.0000    0.59070   0.41480   0.80946   Biso      1.000     C          0.7457060000000001  
         C7        1.0000    0.95840   0.50550   0.43880   Biso      1.000     C          -0.130373           
         C8        1.0000    0.42150   0.88490   0.21490   Biso      1.000     C          -0.16636700000000001          
         C9        1.0000    0.40560   0.17480   0.12210   Biso      1.000     C          0.666949  
         C10       1.0000    0.07820   0.38430   0.37420   Biso      1.000     C          -0.356385           
         C11       1.0000    0.45550   0.58730   0.32080   Biso      1.000     C          -0.33216  
         C12       1.0000    0.99220   0.40510   0.25053   Biso      1.000     C          0.731323  
         C13       1.0000    0.53550   0.69940   0.29850   Biso      1.000     C          -0.135138           
         C14       1.0000    0.57850   0.11510   0.78510   Biso      1.000     C          -0.16636800000000002          
         C15       1.0000    0.40930   0.58520   0.19054   Biso      1.000     C          0.7457060000000001  
         C16       1.0000    0.92180   0.61570   0.62580   Biso      1.000     C          -0.35638400000000003          
         C17       1.0000    0.59440   0.82520   0.87790   Biso      1.000     C          0.666949  
         C18       1.0000    0.04160   0.49450   0.56120   Biso      1.000     C          -0.13037200000000002          
         H1        1.0000    0.36180   0.34030   0.75060   Biso      1.000     H          0.09374   
         H2        1.0000    0.58830   0.96270   0.12790   Biso      1.000     H          0.148998  
         H3        1.0000    0.56400   0.96700   0.27280   Biso      1.000     H          0.138258  
         H4        1.0000    0.56620   0.69980   0.38950   Biso      1.000     H          0.089575  
         H5        1.0000    0.63820   0.65970   0.24940   Biso      1.000     H          0.09374   
         H6        1.0000    0.54480   0.46230   0.38200   Biso      1.000     H          0.13314   
         H7        1.0000    0.36180   0.62200   0.37390   Biso      1.000     H          0.13193   
         H8        1.0000    0.11590   0.27710   0.43050   Biso      1.000     H          0.148992  
         H9        1.0000    0.17670   0.40620   0.35670   Biso      1.000     H          0.143016  
         H10       1.0000    0.32360   0.93990   0.26390   Biso      1.000     H          0.09074700000000001           
         H11       1.0000    0.43380   0.30020   0.61050   Biso      1.000     H          0.089575  
         H12       1.0000    0.37900   0.90540   0.13500   Biso      1.000     H          0.105923  
         H13       1.0000    0.90150   0.63280   0.36730   Biso      1.000     H          0.09135599999999999           
         H14       1.0000    0.41170   0.03730   0.87210   Biso      1.000     H          0.148998  
         H15       1.0000    0.09850   0.36720   0.63270   Biso      1.000     H          0.09135599999999999           
         H16       1.0000    0.12590   0.52210   0.53660   Biso      1.000     H          0.09625399999999999           
         H17       1.0000    0.62100   0.09460   0.86500   Biso      1.000     H          0.105923  
         H18       1.0000    0.67640   0.06010   0.73610   Biso      1.000     H          0.09074700000000001           
         H19       1.0000    0.82330   0.59380   0.64330   Biso      1.000     H          0.143016  
         H20       1.0000    0.43600   0.03300   0.72720   Biso      1.000     H          0.138256  
         H21       1.0000    0.63820   0.37800   0.62610   Biso      1.000     H          0.131931  
         H22       1.0000    0.45520   0.53770   0.61800   Biso      1.000     H          0.13314   
         H23       1.0000    0.87410   0.47790   0.46340   Biso      1.000     H          0.09625399999999999           
         H24       1.0000    0.88410   0.72290   0.56950   Biso      1.000     H          0.14899300000000001           
         Nd1       1.0000    0.77969   0.45649   0.01839   Biso      1.000     Nd          2.097655  
         Nd2       1.0000    0.22031   0.54351   0.98161   Biso      1.000     Nd          2.0976529999999998  
         O1        1.0000    0.51660   0.54890   0.11082   Biso      1.000     O          -0.7362770000000001           
         O2        1.0000    0.02816   0.46680   0.13285   Biso      1.000     O          -0.761407           
         O3        1.0000    0.30521   0.23722   0.01884   Biso      1.000     O          -0.6487229999999999           
         O4        1.0000    0.26342   0.61690   0.16619   Biso      1.000     O          -0.692772           
         O5        1.0000    0.42071   0.27039   0.16802   Biso      1.000     O          -0.6648470000000001           
         O6        1.0000    0.87780   0.36630   0.26385   Biso      1.000     O          -0.6762020000000001           
         O7        1.0000    0.48340   0.45110   0.88918   Biso      1.000     O          -0.7362770000000001           
         O8        1.0000    0.97184   0.53320   0.86715   Biso      1.000     O          -0.761406           
         O9        1.0000    0.69479   0.76278   0.98116   Biso      1.000     O          -0.6487229999999999           
         O10       1.0000    0.73658   0.38310   0.83381   Biso      1.000     O          -0.692773           
         O11       1.0000    0.57929   0.72961   0.83198   Biso      1.000     O          -0.6648470000000001           
         O12       1.0000    0.12220   0.63370   0.73615   Biso      1.000     O          -0.6762020000000001 