
##########################################################################
#               Crystallographic Information Format file
#               Produced by PyCifRW module
#
#  This is a CIF file.  CIF has been adopted by the International
#  Union of Crystallography as the standard for data archiving and
#  transmission.
#
#  For information on this file format, follow the CIF links at
#  http://www.iucr.org
##########################################################################

data_image0

_cell_length_a                          11.0817
_cell_length_b                          13.2573
_cell_length_c                          21.725
_cell_angle_alpha                       82.84
_cell_angle_beta                        77.263
_cell_angle_gamma                       71.66
_symmetry_space_group_name_H-M          'P 1'
_symmetry_int_tables_number             1
loop_
  _symmetry_equiv_pos_as_xyz
         'x, y, z' 
loop_
  _atom_site_label
  _atom_site_occupancy
  _atom_site_fract_x
  _atom_site_fract_y
  _atom_site_fract_z
  _atom_site_thermal_displace_type
  _atom_site_B_iso_or_equiv
  _atom_site_type_symbol
  _atom_site_charge
         C1        1.0000    0.73900   0.95370   0.83390   Biso      1.000     C          -0.00551  
         C2        1.0000    0.80540   0.32610   0.89430   Biso      1.000     C          -0.030688           
         C3        1.0000    0.82630   0.22210   0.91630   Biso      1.000     C          -0.104599           
         C4        1.0000    0.72570   0.18960   0.95290   Biso      1.000     C          0.083287  
         C5        1.0000    0.58310   0.35690   0.94460   Biso      1.000     C          0.072897  
         C6        1.0000    0.68000   0.39500   0.90700   Biso      1.000     C          -0.027764           
         C7        1.0000    0.27550   0.72370   0.90430   Biso      1.000     C          -0.047774           
         C8        1.0000    0.16490   0.80760   0.91550   Biso      1.000     C          -0.123098           
         C9        1.0000    0.16350   0.90700   0.88660   Biso      1.000     C          0.094077  
         C10       1.0000    0.37390   0.84180   0.83500   Biso      1.000     C          0.081113  
         C11       1.0000    0.38340   0.74040   0.86410   Biso      1.000     C          -0.038199           
         C12       1.0000    0.51040   0.66030   0.85120   Biso      1.000     C          0.379118  
         C13       1.0000    0.12390   0.46260   0.86780   Biso      1.000     C          0.592029  
         C14       1.0000    0.65020   0.50280   0.87590   Biso      1.000     C          0.384947  
         C15       1.0000    0.03360   0.70500   0.68920   Biso      1.000     C          0.124633  
         C16       1.0000    0.91090   0.76320   0.67970   Biso      1.000     C          -0.115731           
         C17       1.0000    0.80600   0.73810   0.71620   Biso      1.000     C          -0.05397  
         C18       1.0000    0.82700   0.65150   0.76030   Biso      1.000     C          -0.025035           
         C19       1.0000    0.95320   0.59590   0.76570   Biso      1.000     C          0.055876  
         C20       1.0000    0.83810   0.05420   0.72170   Biso      1.000     C          -0.048482           
         C21       1.0000    0.70930   0.05610   0.73500   Biso      1.000     C          -0.145502           
         C22       1.0000    0.65710   0.00830   0.79170   Biso      1.000     C          -0.038528           
         C23       1.0000    0.86740   0.95260   0.81870   Biso      1.000     C          -0.161726           
         C24       1.0000    0.88720   0.11440   0.66300   Biso      1.000     C          0.5576    
         C25       1.0000    0.51190   0.03350   0.81220   Biso      1.000     C          0.562328  
         C26       1.0000    0.72000   0.62030   0.80290   Biso      1.000     C          0.384392  
         C27       1.0000    0.69150   0.90020   0.89390   Biso      1.000     C          0.587586  
         C28       1.0000    0.06540   0.47830   0.93730   Biso      1.000     C          -0.013996           
         C29       1.0000    0.12810   0.42980   0.98780   Biso      1.000     C          -0.03343  
         C30       1.0000    0.65690   0.31700   0.77090   Biso      1.000     C          -0.068151           
         C31       1.0000    0.54550   0.29470   0.80280   Biso      1.000     C          -0.106752           
         C32       1.0000    0.42620   0.36480   0.79610   Biso      1.000     C          0.111165  
         C33       1.0000    0.52140   0.47920   0.73090   Biso      1.000     C          0.046744  
         C34       1.0000    0.64360   0.41230   0.73340   Biso      1.000     C          -0.023297           
         C35       1.0000    0.12400   0.25450   0.71860   Biso      1.000     C          0.108941  
         C36       1.0000    0.34610   0.21200   0.68830   Biso      1.000     C          0.09683   
         C37       1.0000    0.33660   0.29810   0.64680   Biso      1.000     C          -0.129117           
         C38       1.0000    0.21660   0.36460   0.63880   Biso      1.000     C          -0.045363           
         C39       1.0000    0.10750   0.34090   0.67590   Biso      1.000     C          -0.038224           
         C40       1.0000    0.97620   0.40420   0.66730   Biso      1.000     C          0.382793  
         C41       1.0000    0.93960   0.54650   0.95060   Biso      1.000     C          -0.152754           
         C42       1.0000    0.75950   0.43990   0.69520   Biso      1.000     C          0.381738  
         C43       1.0000    0.93100   0.65170   0.52960   Biso      1.000     C          0.06705   
         C44       1.0000    0.82740   0.62440   0.56530   Biso      1.000     C          -0.022415           
         C45       1.0000    0.70430   0.67940   0.55370   Biso      1.000     C          -0.025295           
         C46       1.0000    0.69230   0.75820   0.50600   Biso      1.000     C          -0.104769           
         C47       1.0000    0.80160   0.78170   0.47210   Biso      1.000     C          0.080055  
         C48       1.0000    0.25160   0.65840   0.49580   Biso      1.000     C          0.563652  
         C49       1.0000    0.37970   0.57610   0.49910   Biso      1.000     C          -0.043118           
         C50       1.0000    0.54900   0.47720   0.55440   Biso      1.000     C          -0.155379           
         C51       1.0000    0.43000   0.55280   0.55490   Biso      1.000     C          -0.012379           
         C52       1.0000    0.36540   0.60420   0.61700   Biso      1.000     C          0.589607  
         C53       1.0000    0.26130   0.35040   0.97920   Biso      1.000     C          0.559762  
         C54       1.0000    0.84490   0.53790   0.61590   Biso      1.000     C          0.378302  
         C55       1.0000    0.04680   0.40410   0.23430   Biso      1.000     C          0.05589   
         C56       1.0000    0.17300   0.34850   0.23970   Biso      1.000     C          -0.024974           
         C57       1.0000    0.19400   0.26190   0.28380   Biso      1.000     C          -0.053961           
         C58       1.0000    0.06900   0.34830   0.47040   Biso      1.000     C          0.06702   
         C59       1.0000    0.15510   0.46210   0.38410   Biso      1.000     C          0.378281  
         C60       1.0000    0.24050   0.56010   0.30480   Biso      1.000     C          0.381654  
         C61       1.0000    0.02380   0.59580   0.33270   Biso      1.000     C          0.382751  
         C62       1.0000    0.89250   0.65910   0.32410   Biso      1.000     C          -0.038423           
         C63       1.0000    0.78340   0.63540   0.36120   Biso      1.000     C          -0.045604           
         C64       1.0000    0.66340   0.70190   0.35320   Biso      1.000     C          -0.129325           
         C65       1.0000    0.65390   0.78800   0.31170   Biso      1.000     C          0.096794  
         C66       1.0000    0.87600   0.74550   0.28140   Biso      1.000     C          0.108874  
         C67       1.0000    0.35640   0.58770   0.26660   Biso      1.000     C          -0.023268           
         C68       1.0000    0.47860   0.52080   0.26910   Biso      1.000     C          0.04681   
         C69       1.0000    0.17260   0.37560   0.43470   Biso      1.000     C          -0.02251  
         C70       1.0000    0.57380   0.63520   0.20390   Biso      1.000     C          0.111188  
         C71       1.0000    0.34310   0.68300   0.22910   Biso      1.000     C          -0.068239           
         C72       1.0000    0.94150   0.99680   0.24410   Biso      1.000     C          0.581175  
         C73       1.0000    0.08120   0.99630   0.23630   Biso      1.000     C          0.000404  
         C74       1.0000    0.16190   0.94580   0.27830   Biso      1.000     C          -0.048357           
         C75       1.0000    0.29070   0.94390   0.26500   Biso      1.000     C          -0.145027           
         C76       1.0000    0.34290   0.99170   0.20830   Biso      1.000     C          -0.03793  
         C77       1.0000    0.26100   0.04630   0.16610   Biso      1.000     C          -0.005703           
         C78       1.0000    0.13260   0.04740   0.18130   Biso      1.000     C          -0.161912           
         C79       1.0000    0.11280   0.88560   0.33700   Biso      1.000     C          0.557482  
         C80       1.0000    0.48810   0.96650   0.18780   Biso      1.000     C          0.562008  
         C81       1.0000    0.30850   0.09980   0.10610   Biso      1.000     C          0.587445  
         C82       1.0000    0.45450   0.70530   0.19720   Biso      1.000     C          -0.106807           
         C83       1.0000    0.29570   0.32060   0.44630   Biso      1.000     C          -0.025415           
         C84       1.0000    0.30770   0.24180   0.49400   Biso      1.000     C          -0.104916           
         C85       1.0000    0.19840   0.21830   0.52790   Biso      1.000     C          0.079959  
         C86       1.0000    0.08910   0.23680   0.32030   Biso      1.000     C          -0.115769           
         C87       1.0000    0.96640   0.29500   0.31080   Biso      1.000     C          0.124605  
         C88       1.0000    0.28000   0.37970   0.19710   Biso      1.000     C          0.384399  
         C89       1.0000    0.34980   0.49720   0.12410   Biso      1.000     C          0.384885  
         C90       1.0000    0.48960   0.33970   0.14880   Biso      1.000     C          0.379238  
         C91       1.0000    0.61660   0.25960   0.13590   Biso      1.000     C          -0.038324           
         C92       1.0000    0.62610   0.15820   0.16500   Biso      1.000     C          0.081104  
         C93       1.0000    0.83650   0.09300   0.11340   Biso      1.000     C          0.094096  
         C94       1.0000    0.83510   0.19240   0.08450   Biso      1.000     C          -0.123303           
         C95       1.0000    0.72450   0.27630   0.09570   Biso      1.000     C          -0.047894           
         C96       1.0000    0.32000   0.60500   0.09300   Biso      1.000     C          -0.027594           
         C97       1.0000    0.41690   0.64310   0.05540   Biso      1.000     C          0.072861  
         C98       1.0000    0.27430   0.81040   0.04710   Biso      1.000     C          0.083204  
         C99       1.0000    0.17370   0.77790   0.08370   Biso      1.000     C          -0.104492           
         C100      1.0000    0.19460   0.67390   0.10570   Biso      1.000     C          -0.030567           
         C101      1.0000    0.87610   0.53740   0.13220   Biso      1.000     C          0.591912  
         C102      1.0000    0.93460   0.52170   0.06270   Biso      1.000     C          -0.01391  
         C103      1.0000    0.06040   0.45350   0.04940   Biso      1.000     C          -0.152682           
         C104      1.0000    0.87190   0.57020   0.01220   Biso      1.000     C          -0.033579           
         C105      1.0000    0.73870   0.64960   0.02080   Biso      1.000     C          0.559746  
         C106      1.0000    0.63460   0.39580   0.38300   Biso      1.000     C          0.58961   
         C107      1.0000    0.57000   0.44720   0.44510   Biso      1.000     C          -0.012336           
         C108      1.0000    0.45100   0.52280   0.44560   Biso      1.000     C          -0.15536  
         C109      1.0000    0.62030   0.42390   0.50090   Biso      1.000     C          -0.042972           
         C110      1.0000    0.74840   0.34160   0.50420   Biso      1.000     C          0.563657  
         C111      1.0000    0.05850   0.00320   0.75590   Biso      1.000     C          0.581402  
         C112      1.0000    0.91880   0.00370   0.76370   Biso      1.000     C          0.000669  
         Cu1       1.0000    0.23621   0.55266   0.74918   Biso      1.000     Cu          0.749601  
         Cu2       1.0000    0.76379   0.44734   0.25082   Biso      1.000     Cu          0.749701  
         Cu3       1.0000    0.25467   0.06157   0.78984   Biso      1.000     Cu          0.751158  
         Cu4       1.0000    0.46085   0.20682   0.02542   Biso      1.000     Cu          0.794203  
         Cu5       1.0000    0.06337   0.79113   0.44417   Biso      1.000     Cu          0.735349  
         Cu6       1.0000    0.74533   0.93843   0.21016   Biso      1.000     Cu          0.750043  
         Cu7       1.0000    0.53915   0.79318   0.97458   Biso      1.000     Cu          0.795739  
         Cu8       1.0000    0.93663   0.20887   0.55583   Biso      1.000     Cu          0.73422   
         H1        1.0000    0.58250   0.46140   0.59140   Biso      1.000     H          0.115368  
         H2        1.0000    0.79290   0.83520   0.43980   Biso      1.000     H          0.10773   
         H3        1.0000    0.61130   0.79520   0.49670   Biso      1.000     H          0.13842   
         H4        1.0000    0.63150   0.66320   0.57780   Biso      1.000     H          0.126682  
         H5        1.0000    0.42830   0.16720   0.69170   Biso      1.000     H          0.103251  
         H6        1.0000    0.20850   0.42300   0.60980   Biso      1.000     H          0.121673  
         H7        1.0000    0.41130   0.31240   0.62360   Biso      1.000     H          0.13342   
         H8        1.0000    0.89860   0.57800   0.91700   Biso      1.000     H          0.12307   
         H9        1.0000    0.05070   0.24130   0.74410   Biso      1.000     H          0.104989  
         H10       1.0000    0.01320   0.61410   0.53730   Biso      1.000     H          0.100432  
         H11       1.0000    0.87340   0.35020   0.87140   Biso      1.000     H          0.13022   
         H12       1.0000    0.27770   0.65660   0.92350   Biso      1.000     H          0.126162  
         H13       1.0000    0.74220   0.11900   0.96860   Biso      1.000     H          0.102172  
         H14       1.0000    0.50030   0.40410   0.95460   Biso      1.000     H          0.10214   
         H15       1.0000    0.51350   0.54350   0.70710   Biso      1.000     H          0.101117  
         H16       1.0000    0.09100   0.79780   0.94240   Biso      1.000     H          0.135682  
         H17       1.0000    0.08920   0.96400   0.89610   Biso      1.000     H          0.099791  
         H18       1.0000    0.44610   0.85260   0.80710   Biso      1.000     H          0.104998  
         H19       1.0000    0.10390   0.72460   0.66500   Biso      1.000     H          0.113466  
         H20       1.0000    0.90000   0.81890   0.64880   Biso      1.000     H          0.135733  
         H21       1.0000    0.72230   0.77790   0.71180   Biso      1.000     H          0.130309  
         H22       1.0000    0.96680   0.53760   0.79480   Biso      1.000     H          0.096886  
         H23       1.0000    0.07800   0.08390   0.15360   Biso      1.000     H          0.118331  
         H24       1.0000    0.90820   0.17350   0.90650   Biso      1.000     H          0.135378  
         H25       1.0000    0.35170   0.34760   0.81690   Biso      1.000     H          0.107784  
         H26       1.0000    0.34350   0.91040   0.29390   Biso      1.000     H          0.127198  
         H27       1.0000    0.73810   0.27040   0.77410   Biso      1.000     H          0.123091  
         H28       1.0000    0.26190   0.72960   0.22590   Biso      1.000     H          0.123087  
         H29       1.0000    0.44960   0.76730   0.17130   Biso      1.000     H          0.135339  
         H30       1.0000    0.64830   0.65240   0.18310   Biso      1.000     H          0.107797  
         H31       1.0000    0.48650   0.45650   0.29290   Biso      1.000     H          0.101153  
         H32       1.0000    0.94930   0.75870   0.25590   Biso      1.000     H          0.104868  
         H33       1.0000    0.57170   0.83280   0.30830   Biso      1.000     H          0.103156  
         H34       1.0000    0.58870   0.68760   0.37640   Biso      1.000     H          0.133289  
         H35       1.0000    0.79150   0.57700   0.39020   Biso      1.000     H          0.121613  
         H36       1.0000    0.36850   0.33680   0.42220   Biso      1.000     H          0.126662  
         H37       1.0000    0.38870   0.20480   0.50330   Biso      1.000     H          0.138369  
         H38       1.0000    0.20710   0.16480   0.56020   Biso      1.000     H          0.107691  
         H39       1.0000    0.41750   0.53860   0.40860   Biso      1.000     H          0.115374  
         H40       1.0000    0.10140   0.42200   0.08300   Biso      1.000     H          0.123111  
         H41       1.0000    0.98680   0.38590   0.46270   Biso      1.000     H          0.100406  
         H42       1.0000    0.09180   0.82650   0.09350   Biso      1.000     H          0.135481  
         H43       1.0000    0.65650   0.08960   0.70610   Biso      1.000     H          0.127195  
         H44       1.0000    0.12660   0.64980   0.12860   Biso      1.000     H          0.130276  
         H45       1.0000    0.03320   0.46240   0.20520   Biso      1.000     H          0.096884  
         H46       1.0000    0.27770   0.22210   0.28820   Biso      1.000     H          0.130331  
         H47       1.0000    0.10000   0.18110   0.35120   Biso      1.000     H          0.135718  
         H48       1.0000    0.89610   0.27540   0.33500   Biso      1.000     H          0.113468  
         H49       1.0000    0.92200   0.91610   0.84640   Biso      1.000     H          0.118208  
         H50       1.0000    0.91080   0.03600   0.10390   Biso      1.000     H          0.099662  
         H51       1.0000    0.55390   0.14740   0.19290   Biso      1.000     H          0.1049    
         H52       1.0000    0.25780   0.88100   0.03140   Biso      1.000     H          0.102203  
         H53       1.0000    0.49970   0.59590   0.04540   Biso      1.000     H          0.102151  
         H54       1.0000    0.55040   0.23270   0.82870   Biso      1.000     H          0.135402  
         H55       1.0000    0.90900   0.20220   0.05760   Biso      1.000     H          0.13558   
         H56       1.0000    0.72230   0.34340   0.07650   Biso      1.000     H          0.126054  
         N1        1.0000    0.58640   0.54370   0.23910   Biso      1.000     N          -0.206353           
         N2        1.0000    0.75860   0.81220   0.27450   Biso      1.000     N          -0.212212           
         N3        1.0000    0.24980   0.47250   0.16290   Biso      1.000     N          -0.396274           
         N4        1.0000    0.12530   0.61960   0.29380   Biso      1.000     N          -0.383195           
         N5        1.0000    0.26310   0.47840   0.34730   Biso      1.000     N          -0.388399           
         N6        1.0000    0.07940   0.26990   0.51610   Biso      1.000     N          -0.237483           
         N7        1.0000    0.39730   0.74380   0.03280   Biso      1.000     N          -0.248874           
         N8        1.0000    0.73310   0.07610   0.15500   Biso      1.000     N          -0.198373           
         N9        1.0000    0.40000   0.31410   0.19370   Biso      1.000     N          -0.37666  
         N10       1.0000    0.47000   0.43280   0.11320   Biso      1.000     N          -0.403711           
         N11       1.0000    0.03460   0.51710   0.37890   Biso      1.000     N          -0.401516           
         N12       1.0000    0.94330   0.37850   0.26840   Biso      1.000     N          -0.209429           
         N13       1.0000    0.24140   0.18780   0.72550   Biso      1.000     N          -0.21159  
         N14       1.0000    0.41360   0.45630   0.76090   Biso      1.000     N          -0.206414           
         N15       1.0000    0.05670   0.62150   0.73160   Biso      1.000     N          -0.209462           
         N16       1.0000    0.75020   0.52750   0.83710   Biso      1.000     N          -0.396206           
         N17       1.0000    0.60000   0.68590   0.80630   Biso      1.000     N          -0.376713           
         N18       1.0000    0.26690   0.92390   0.84500   Biso      1.000     N          -0.197749           
         N19       1.0000    0.53000   0.56720   0.88680   Biso      1.000     N          -0.4037   
         N20       1.0000    0.92060   0.73010   0.48390   Biso      1.000     N          -0.237454           
         N21       1.0000    0.73690   0.52160   0.65270   Biso      1.000     N          -0.388347           
         N22       1.0000    0.87470   0.38040   0.70620   Biso      1.000     N          -0.383064           
         N23       1.0000    0.96540   0.48290   0.62110   Biso      1.000     N          -0.401478           
         N24       1.0000    0.60270   0.25620   0.96720   Biso      1.000     N          -0.248623           
         O1        1.0000    0.88670   0.60980   0.15870   Biso      1.000     O          -0.543543           
         O2        1.0000    0.61330   0.31390   0.37270   Biso      1.000     O          -0.533234           
         O3        1.0000    0.80160   0.27730   0.46290   Biso      1.000     O          -0.546071           
         O4        1.0000    0.79610   0.34080   0.55310   Biso      1.000     O          -0.514465           
         O5        1.0000    0.82750   0.46260   0.15970   Biso      1.000     O          -0.575568           
         O6        1.0000    0.67820   0.66230   0.97490   Biso      1.000     O          -0.512508           
         O7        1.0000    0.17720   0.86100   0.38160   Biso      1.000     O          -0.512123           
         O8        1.0000    0.92420   0.93290   0.21110   Biso      1.000     O          -0.551608           
         O9        1.0000    0.85440   0.06460   0.27710   Biso      1.000     O          -0.5441   
         O10       1.0000    0.01190   0.86040   0.34070   Biso      1.000     O          -0.522394           
         O11       1.0000    0.69770   0.44980   0.34410   Biso      1.000     O          -0.576861           
         O12       1.0000    0.55200   0.97010   0.22910   Biso      1.000     O          -0.5546   
         O13       1.0000    0.53590   0.94000   0.13270   Biso      1.000     O          -0.540117           
         O14       1.0000    0.69390   0.69890   0.06890   Biso      1.000     O          -0.52038  
         O15       1.0000    0.71870   0.91890   0.94400   Biso      1.000     O          -0.569187           
         O16       1.0000    0.14560   0.93540   0.72290   Biso      1.000     O          -0.545857           
         O17       1.0000    0.46410   0.06000   0.86730   Biso      1.000     O          -0.541613           
         O18       1.0000    0.44800   0.02990   0.77090   Biso      1.000     O          -0.553977           
         O19       1.0000    0.82280   0.13900   0.61840   Biso      1.000     O          -0.512438           
         O20       1.0000    0.98810   0.13960   0.65930   Biso      1.000     O          -0.52337  
         O21       1.0000    0.07580   0.06710   0.78890   Biso      1.000     O          -0.550728           
         O22       1.0000    0.30610   0.30110   0.93110   Biso      1.000     O          -0.520561           
         O23       1.0000    0.32180   0.33770   0.02510   Biso      1.000     O          -0.513344           
         O24       1.0000    0.11330   0.39020   0.84130   Biso      1.000     O          -0.543838           
         O25       1.0000    0.17250   0.53740   0.84030   Biso      1.000     O          -0.575714           
         O26       1.0000    0.20390   0.65920   0.44690   Biso      1.000     O          -0.514042           
         O27       1.0000    0.19840   0.72270   0.53710   Biso      1.000     O          -0.545947           
         O28       1.0000    0.38670   0.68610   0.62730   Biso      1.000     O          -0.532969           
         O29       1.0000    0.30230   0.55020   0.65590   Biso      1.000     O          -0.576911           
         O30       1.0000    0.37410   0.16100   0.10820   Biso      1.000     O          -0.516943           
         O31       1.0000    0.62590   0.83900   0.89180   Biso      1.000     O          -0.516868           
         O32       1.0000    0.28130   0.08110   0.05600   Biso      1.000     O          -0.569221 