
##########################################################################
#               Crystallographic Information Format file
#               Produced by PyCifRW module
#
#  This is a CIF file.  CIF has been adopted by the International
#  Union of Crystallography as the standard for data archiving and
#  transmission.
#
#  For information on this file format, follow the CIF links at
#  http://www.iucr.org
##########################################################################

data_image0

_cell_length_a                          20.01
_cell_length_b                          13.193
_cell_length_c                          9.895
_cell_angle_alpha                       90
_cell_angle_beta                        113.142
_cell_angle_gamma                       90
_symmetry_space_group_name_H-M          'P 1'
_symmetry_int_tables_number             1
loop_
  _symmetry_equiv_pos_as_xyz
         'x, y, z' 
loop_
  _atom_site_label
  _atom_site_occupancy
  _atom_site_fract_x
  _atom_site_fract_y
  _atom_site_fract_z
  _atom_site_thermal_displace_type
  _atom_site_B_iso_or_equiv
  _atom_site_type_symbol
  _atom_site_charge
         C1        1.0000    0.73170   0.62740   0.74730   Biso      1.000     C          -0.166397           
         C2        1.0000    0.69180   0.59010   0.60850   Biso      1.000     C          -0.026799           
         C3        1.0000    0.61480   0.55290   0.56960   Biso      1.000     C          0.679652  
         C4        1.0000    0.88520   0.05290   0.93040   Biso      1.000     C          0.679653  
         C5        1.0000    0.80820   0.09010   0.89150   Biso      1.000     C          -0.026802           
         C6        1.0000    0.76830   0.12740   0.75270   Biso      1.000     C          -0.166394           
         C7        1.0000    0.69640   0.16080   0.71680   Biso      1.000     C          0.048951  
         C8        1.0000    0.39810   0.78200   0.67410   Biso      1.000     C          0.022789  
         C9        1.0000    0.34510   0.83720   0.56630   Biso      1.000     C          -0.277945           
         C10       1.0000    0.34620   0.80530   0.43530   Biso      1.000     C          0.166262  
         C11       1.0000    0.22100   0.91250   0.00280   Biso      1.000     C          -0.118852           
         C12       1.0000    0.80360   0.66080   0.78320   Biso      1.000     C          0.048951  
         C13       1.0000    0.29140   0.87610   0.03810   Biso      1.000     C          -0.073774           
         C14       1.0000    0.30360   0.83920   0.28320   Biso      1.000     C          0.04895   
         C15       1.0000    0.19180   0.90990   0.10850   Biso      1.000     C          -0.026798           
         C16       1.0000    0.11480   0.94710   0.06960   Biso      1.000     C          0.679652  
         C17       1.0000    0.66770   0.15870   0.82230   Biso      1.000     C          -0.134622           
         C18       1.0000    0.70860   0.12390   0.96190   Biso      1.000     C          -0.073773           
         C19       1.0000    0.77900   0.08750   0.99720   Biso      1.000     C          -0.118848           
         C20       1.0000    0.89810   0.28200   0.67410   Biso      1.000     C          0.022787  
         C21       1.0000    0.84510   0.33720   0.56630   Biso      1.000     C          -0.277945           
         C22       1.0000    0.84620   0.30530   0.43530   Biso      1.000     C          0.166264  
         C23       1.0000    0.72100   0.41250   0.00280   Biso      1.000     C          -0.118852           
         C24       1.0000    0.33230   0.84130   0.17770   Biso      1.000     C          -0.134621           
         C25       1.0000    0.79140   0.37610   0.03810   Biso      1.000     C          -0.073774           
         C26       1.0000    0.83230   0.65870   0.67770   Biso      1.000     C          -0.134622           
         C27       1.0000    0.72100   0.58750   0.50280   Biso      1.000     C          -0.118849           
         C28       1.0000    0.16770   0.65870   0.82230   Biso      1.000     C          -0.134623           
         C29       1.0000    0.19640   0.66080   0.71680   Biso      1.000     C          0.048951  
         C30       1.0000    0.26830   0.62740   0.75270   Biso      1.000     C          -0.166397           
         C31       1.0000    0.30820   0.59010   0.89150   Biso      1.000     C          -0.026799           
         C32       1.0000    0.38520   0.55290   0.93040   Biso      1.000     C          0.679652  
         C33       1.0000    0.27900   0.58750   0.99720   Biso      1.000     C          -0.118849           
         C34       1.0000    0.15380   0.69470   0.56470   Biso      1.000     C          0.166257  
         C35       1.0000    0.15490   0.66280   0.43370   Biso      1.000     C          -0.277943           
         C36       1.0000    0.39810   0.21800   0.17410   Biso      1.000     C          0.022789  
         C37       1.0000    0.34510   0.16280   0.06630   Biso      1.000     C          -0.277945           
         C38       1.0000    0.79140   0.62390   0.53810   Biso      1.000     C          -0.073772           
         C39       1.0000    0.34620   0.19470   0.93530   Biso      1.000     C          0.166262  
         C40       1.0000    0.29140   0.12390   0.53810   Biso      1.000     C          -0.073774           
         C41       1.0000    0.33230   0.15870   0.67770   Biso      1.000     C          -0.134621           
         C42       1.0000    0.30360   0.16080   0.78320   Biso      1.000     C          0.048951  
         C43       1.0000    0.23170   0.12740   0.74730   Biso      1.000     C          -0.166397           
         C44       1.0000    0.19180   0.09010   0.60850   Biso      1.000     C          -0.026799           
         C45       1.0000    0.11480   0.05290   0.56960   Biso      1.000     C          0.679652  
         C46       1.0000    0.10190   0.71800   0.32590   Biso      1.000     C          0.022793  
         C47       1.0000    0.89810   0.71800   0.17410   Biso      1.000     C          0.022789  
         C48       1.0000    0.84510   0.66280   0.06630   Biso      1.000     C          -0.277945           
         C49       1.0000    0.84620   0.69470   0.93530   Biso      1.000     C          0.166262  
         C50       1.0000    0.22100   0.08750   0.50280   Biso      1.000     C          -0.118849           
         C51       1.0000    0.83230   0.34130   0.17770   Biso      1.000     C          -0.134621           
         C52       1.0000    0.23170   0.87260   0.24730   Biso      1.000     C          -0.166394           
         C53       1.0000    0.20860   0.62390   0.96190   Biso      1.000     C          -0.073772           
         C54       1.0000    0.60190   0.78200   0.82590   Biso      1.000     C          0.022787  
         C55       1.0000    0.65490   0.83720   0.93370   Biso      1.000     C          -0.277945           
         C56       1.0000    0.65380   0.80530   0.06470   Biso      1.000     C          0.166264  
         C57       1.0000    0.77900   0.91250   0.49720   Biso      1.000     C          -0.118853           
         C58       1.0000    0.15380   0.30530   0.06470   Biso      1.000     C          0.166257  
         C59       1.0000    0.15490   0.33720   0.93370   Biso      1.000     C          -0.277943           
         C60       1.0000    0.20860   0.37610   0.46190   Biso      1.000     C          -0.073774           
         C61       1.0000    0.70860   0.87610   0.46190   Biso      1.000     C          -0.073774           
         C62       1.0000    0.66770   0.84130   0.32230   Biso      1.000     C          -0.134621           
         C63       1.0000    0.69640   0.83920   0.21680   Biso      1.000     C          0.048951  
         C64       1.0000    0.76830   0.87260   0.25270   Biso      1.000     C          -0.166397           
         C65       1.0000    0.80820   0.90990   0.39150   Biso      1.000     C          -0.026795           
         C66       1.0000    0.88520   0.94710   0.43040   Biso      1.000     C          0.679652  
         C67       1.0000    0.80360   0.33920   0.28320   Biso      1.000     C          0.048951  
         C68       1.0000    0.10190   0.28200   0.82590   Biso      1.000     C          0.022792  
         C69       1.0000    0.60190   0.21800   0.32590   Biso      1.000     C          0.022786  
         C70       1.0000    0.27900   0.41250   0.49720   Biso      1.000     C          -0.118852           
         C71       1.0000    0.38520   0.44710   0.43040   Biso      1.000     C          0.679652  
         C72       1.0000    0.30820   0.40990   0.39150   Biso      1.000     C          -0.026798           
         C73       1.0000    0.65380   0.19470   0.56470   Biso      1.000     C          0.166258  
         C74       1.0000    0.69180   0.40990   0.10850   Biso      1.000     C          -0.026798           
         C75       1.0000    0.65490   0.16280   0.43370   Biso      1.000     C          -0.277939           
         C76       1.0000    0.61480   0.44710   0.06960   Biso      1.000     C          0.679652  
         C77       1.0000    0.73170   0.37260   0.24730   Biso      1.000     C          -0.166394           
         C78       1.0000    0.26830   0.37260   0.25270   Biso      1.000     C          -0.166394           
         C79       1.0000    0.19640   0.33920   0.21680   Biso      1.000     C          0.048951  
         C80       1.0000    0.16770   0.34130   0.32230   Biso      1.000     C          -0.134621           
         H1        1.0000    0.90910   0.79860   0.90570   Biso      1.000     H          0.280383  
         H2        1.0000    0.09040   0.71080   0.22570   Biso      1.000     H          0.11665   
         H3        1.0000    0.18520   0.61390   0.42020   Biso      1.000     H          0.148267  
         H4        1.0000    0.90960   0.71080   0.27430   Biso      1.000     H          0.11665   
         H5        1.0000    0.09040   0.28920   0.72570   Biso      1.000     H          0.11665   
         H6        1.0000    0.59090   0.29860   0.59430   Biso      1.000     H          0.280384  
         H7        1.0000    0.28880   0.63050   0.68310   Biso      1.000     H          0.125024  
         H8        1.0000    0.12040   0.31900   0.29930   Biso      1.000     H          0.112007  
         H9        1.0000    0.21120   0.13050   0.81690   Biso      1.000     H          0.125024  
         H10       1.0000    0.40960   0.21080   0.27430   Biso      1.000     H          0.11665   
         H11       1.0000    0.18910   0.62470   0.03320   Biso      1.000     H          0.111898  
         H12       1.0000    0.28880   0.36950   0.18310   Biso      1.000     H          0.125024  
         H13       1.0000    0.37960   0.18100   0.70070   Biso      1.000     H          0.112007  
         H14       1.0000    0.30600   0.43810   0.59050   Biso      1.000     H          0.117567  
         H15       1.0000    0.31090   0.12470   0.46680   Biso      1.000     H          0.111898  
         H16       1.0000    0.30600   0.56190   0.09050   Biso      1.000     H          0.117566  
         H17       1.0000    0.81480   0.61390   0.07980   Biso      1.000     H          0.148268  
         H18       1.0000    0.40910   0.29860   0.90570   Biso      1.000     H          0.280383  
         H19       1.0000    0.19400   0.06190   0.40950   Biso      1.000     H          0.117566  
         H20       1.0000    0.18910   0.37530   0.53320   Biso      1.000     H          0.111898  
         H21       1.0000    0.31480   0.11390   0.07980   Biso      1.000     H          0.148268  
         H22       1.0000    0.18520   0.38610   0.92020   Biso      1.000     H          0.148267  
         H23       1.0000    0.09090   0.20140   0.09430   Biso      1.000     H          0.280383  
         H24       1.0000    0.71120   0.36950   0.31690   Biso      1.000     H          0.125023  
         H25       1.0000    0.69400   0.56190   0.40950   Biso      1.000     H          0.117566  
         H26       1.0000    0.21120   0.86950   0.31690   Biso      1.000     H          0.125023  
         H27       1.0000    0.12040   0.68100   0.79930   Biso      1.000     H          0.112007  
         H28       1.0000    0.59040   0.78920   0.72570   Biso      1.000     H          0.116651  
         H29       1.0000    0.68520   0.11390   0.42020   Biso      1.000     H          0.148267  
         H30       1.0000    0.62040   0.18100   0.79930   Biso      1.000     H          0.112007  
         H31       1.0000    0.59090   0.70140   0.09430   Biso      1.000     H          0.280384  
         H32       1.0000    0.68520   0.88610   0.92020   Biso      1.000     H          0.148268  
         H33       1.0000    0.90910   0.20140   0.40570   Biso      1.000     H          0.280384  
         H34       1.0000    0.90960   0.28920   0.77430   Biso      1.000     H          0.116651  
         H35       1.0000    0.81480   0.38610   0.57980   Biso      1.000     H          0.148267  
         H36       1.0000    0.80600   0.06190   0.09050   Biso      1.000     H          0.117566  
         H37       1.0000    0.69400   0.43810   0.90950   Biso      1.000     H          0.117567  
         H38       1.0000    0.81090   0.37530   0.96680   Biso      1.000     H          0.111898  
         H39       1.0000    0.87960   0.31900   0.20070   Biso      1.000     H          0.112007  
         H40       1.0000    0.68910   0.12470   0.03320   Biso      1.000     H          0.111898  
         H41       1.0000    0.31090   0.87530   0.96680   Biso      1.000     H          0.111898  
         H42       1.0000    0.37960   0.81900   0.20070   Biso      1.000     H          0.112007  
         H43       1.0000    0.80600   0.93810   0.59050   Biso      1.000     H          0.117567  
         H44       1.0000    0.81090   0.62470   0.46680   Biso      1.000     H          0.111898  
         H45       1.0000    0.59040   0.21080   0.22570   Biso      1.000     H          0.116651  
         H46       1.0000    0.71120   0.63050   0.81690   Biso      1.000     H          0.125024  
         H47       1.0000    0.19400   0.93810   0.90950   Biso      1.000     H          0.117567  
         H48       1.0000    0.09090   0.79860   0.59430   Biso      1.000     H          0.280383  
         H49       1.0000    0.78880   0.86950   0.18310   Biso      1.000     H          0.125024  
         H50       1.0000    0.87960   0.68100   0.70070   Biso      1.000     H          0.112007  
         H51       1.0000    0.40910   0.70140   0.40570   Biso      1.000     H          0.280383  
         H52       1.0000    0.78880   0.13050   0.68310   Biso      1.000     H          0.125023  
         H53       1.0000    0.40960   0.78920   0.77430   Biso      1.000     H          0.116651  
         H54       1.0000    0.68910   0.87530   0.53320   Biso      1.000     H          0.111898  
         H55       1.0000    0.31480   0.88610   0.57980   Biso      1.000     H          0.148268  
         H56       1.0000    0.62040   0.81900   0.29930   Biso      1.000     H          0.112007  
         N1        1.0000    0.06910   0.78310   0.38380   Biso      1.000     N          -0.272445           
         N2        1.0000    0.10190   0.76660   0.53020   Biso      1.000     N          -0.14162  
         N3        1.0000    0.60190   0.26660   0.53020   Biso      1.000     N          -0.14164  
         N4        1.0000    0.56910   0.28310   0.38380   Biso      1.000     N          -0.272424           
         N5        1.0000    0.00000   0.16700   0.25000   Biso      1.000     N          0.755271  
         N6        1.0000    0.50000   0.33300   0.75000   Biso      1.000     N          0.755271  
         N7        1.0000    0.50000   0.66700   0.25000   Biso      1.000     N          0.755271  
         N8        1.0000    0.00000   0.83300   0.75000   Biso      1.000     N          0.755271  
         N9        1.0000    0.89810   0.23340   0.46980   Biso      1.000     N          -0.14164  
         N10       1.0000    0.60190   0.73340   0.03020   Biso      1.000     N          -0.14164  
         N11       1.0000    0.43090   0.71690   0.61620   Biso      1.000     N          -0.272445           
         N12       1.0000    0.39810   0.73340   0.46980   Biso      1.000     N          -0.14162  
         N13       1.0000    0.56910   0.71690   0.88380   Biso      1.000     N          -0.272424           
         N14       1.0000    0.06910   0.21690   0.88380   Biso      1.000     N          -0.272445           
         N15       1.0000    0.93090   0.78310   0.11620   Biso      1.000     N          -0.272444           
         N16       1.0000    0.10190   0.23340   0.03020   Biso      1.000     N          -0.14162  
         N17       1.0000    0.43090   0.28310   0.11620   Biso      1.000     N          -0.272445           
         N18       1.0000    0.39810   0.26660   0.96980   Biso      1.000     N          -0.14162  
         N19       1.0000    0.89810   0.76660   0.96980   Biso      1.000     N          -0.14162  
         N20       1.0000    0.93090   0.21690   0.61620   Biso      1.000     N          -0.272425           
         O1        1.0000    0.00000   0.25820   0.25000   Biso      1.000     O          -0.384341           
         O2        1.0000    0.54069   0.61570   0.20420   Biso      1.000     O          -0.518405           
         O3        1.0000    0.50000   0.75820   0.25000   Biso      1.000     O          -0.384341           
         O4        1.0000    0.45931   0.61570   0.29580   Biso      1.000     O          -0.518405           
         O5        1.0000    0.91754   0.91590   0.35290   Biso      1.000     O          -0.684029           
         O6        1.0000    0.91092   0.00670   0.53570   Biso      1.000     O          -0.682431           
         O7        1.0000    0.04069   0.11570   0.20420   Biso      1.000     O          -0.518405           
         O8        1.0000    0.50000   0.24180   0.75000   Biso      1.000     O          -0.384341           
         O9        1.0000    0.41092   0.50670   0.53570   Biso      1.000     O          -0.682431           
         O10       1.0000    0.58246   0.41590   0.14710   Biso      1.000     O          -0.684029           
         O11       1.0000    0.58908   0.50670   0.96430   Biso      1.000     O          -0.682431           
         O12       1.0000    0.41092   0.49330   0.03570   Biso      1.000     O          -0.682431           
         O13       1.0000    0.08246   0.91590   0.14710   Biso      1.000     O          -0.684029           
         O14       1.0000    0.41754   0.58410   0.85290   Biso      1.000     O          -0.684029           
         O15       1.0000    0.95931   0.88430   0.79580   Biso      1.000     O          -0.518405           
         O16       1.0000    0.08908   0.99330   0.46430   Biso      1.000     O          -0.682431           
         O17       1.0000    0.08246   0.08410   0.64710   Biso      1.000     O          -0.684029           
         O18       1.0000    0.00000   0.74180   0.75000   Biso      1.000     O          -0.384341           
         O19       1.0000    0.54069   0.38430   0.70420   Biso      1.000     O          -0.518405           
         O20       1.0000    0.91754   0.08410   0.85290   Biso      1.000     O          -0.684029           
         O21       1.0000    0.04069   0.88430   0.70420   Biso      1.000     O          -0.518405           
         O22       1.0000    0.45931   0.38430   0.79580   Biso      1.000     O          -0.518405           
         O23       1.0000    0.58908   0.49330   0.46430   Biso      1.000     O          -0.682431           
         O24       1.0000    0.58246   0.58410   0.64710   Biso      1.000     O          -0.684029           
         O25       1.0000    0.95931   0.11570   0.29580   Biso      1.000     O          -0.518405           
         O26       1.0000    0.08908   0.00670   0.96430   Biso      1.000     O          -0.682431           
         O27       1.0000    0.91092   0.99330   0.03570   Biso      1.000     O          -0.682431           
         O28       1.0000    0.41754   0.41590   0.35290   Biso      1.000     O          -0.684029           
         Tb1       1.0000    0.50000   0.44129   0.25000   Biso      1.000     Tb          1.964795  
         Tb2       1.0000    0.00000   0.94129   0.25000   Biso      1.000     Tb          1.964796  
         Tb3       1.0000    0.50000   0.55871   0.75000   Biso      1.000     Tb          1.964795  
         Tb4       1.0000    0.00000   0.05871   0.75000   Biso      1.000     Tb          1.964795 