
##########################################################################
#               Crystallographic Information Format file
#               Produced by PyCifRW module
#
#  This is a CIF file.  CIF has been adopted by the International
#  Union of Crystallography as the standard for data archiving and
#  transmission.
#
#  For information on this file format, follow the CIF links at
#  http://www.iucr.org
##########################################################################

data_image0

_cell_length_a                          19.974
_cell_length_b                          13.135
_cell_length_c                          9.901
_cell_angle_alpha                       90
_cell_angle_beta                        113.308
_cell_angle_gamma                       90
_symmetry_space_group_name_H-M          'P 1'
_symmetry_int_tables_number             1
loop_
  _symmetry_equiv_pos_as_xyz
         'x, y, z' 
loop_
  _atom_site_label
  _atom_site_occupancy
  _atom_site_fract_x
  _atom_site_fract_y
  _atom_site_fract_z
  _atom_site_thermal_displace_type
  _atom_site_B_iso_or_equiv
  _atom_site_type_symbol
  _atom_site_charge
         C1        1.0000    0.38430   0.55320   0.42870   Biso      1.000     C          0.6093930000000001  
         C2        1.0000    0.83120   0.34010   0.67700   Biso      1.000     C          -0.127334           
         C3        1.0000    0.34370   0.83760   0.06410   Biso      1.000     C          -0.278542           
         C4        1.0000    0.79040   0.37590   0.53810   Biso      1.000     C          -0.073885           
         C5        1.0000    0.38430   0.44680   0.92870   Biso      1.000     C          0.60935   
         C6        1.0000    0.60240   0.21850   0.82830   Biso      1.000     C          0.003525  
         C7        1.0000    0.30790   0.40990   0.89070   Biso      1.000     C          -0.023913999999999998         
         C8        1.0000    0.65630   0.16240   0.93590   Biso      1.000     C          -0.278548           
         C9        1.0000    0.65440   0.19420   0.06580   Biso      1.000     C          0.171655  
         C10       1.0000    0.26780   0.37300   0.75310   Biso      1.000     C          -0.164053           
         C11       1.0000    0.77860   0.08800   0.49600   Biso      1.000     C          -0.104143           
         C12       1.0000    0.70960   0.12410   0.46190   Biso      1.000     C          -0.073877           
         C13       1.0000    0.19690   0.33930   0.71640   Biso      1.000     C          0.055812  
         C14       1.0000    0.66880   0.15990   0.32300   Biso      1.000     C          -0.127335           
         C15       1.0000    0.69690   0.16070   0.21640   Biso      1.000     C          0.05581799999999999           
         C16       1.0000    0.16880   0.34010   0.82300   Biso      1.000     C          -0.127331           
         C17       1.0000    0.76780   0.12700   0.25310   Biso      1.000     C          -0.16406400000000002          
         C18       1.0000    0.80790   0.09010   0.39070   Biso      1.000     C          -0.023903           
         C19       1.0000    0.66880   0.84010   0.82300   Biso      1.000     C          -0.127333           
         C20       1.0000    0.72140   0.41200   0.50400   Biso      1.000     C          -0.104131           
         C21       1.0000    0.80310   0.33930   0.78360   Biso      1.000     C          0.055815  
         C22       1.0000    0.20960   0.37590   0.96190   Biso      1.000     C          -0.073889           
         C23       1.0000    0.33120   0.84010   0.67700   Biso      1.000     C          -0.12733699999999998          
         C24       1.0000    0.26780   0.62700   0.25310   Biso      1.000     C          -0.16405999999999998          
         C25       1.0000    0.69690   0.83930   0.71640   Biso      1.000     C          0.05581900000000001           
         C26       1.0000    0.76780   0.87300   0.75310   Biso      1.000     C          -0.16406600000000002          
         C27       1.0000    0.80790   0.90990   0.89070   Biso      1.000     C          -0.023906999999999998         
         C28       1.0000    0.88430   0.94680   0.92870   Biso      1.000     C          0.60935   
         C29       1.0000    0.77860   0.91200   0.99600   Biso      1.000     C          -0.10413  
         C30       1.0000    0.61570   0.44680   0.57130   Biso      1.000     C          0.60934   
         C31       1.0000    0.69210   0.40990   0.60930   Biso      1.000     C          -0.023909           
         C32       1.0000    0.73220   0.37300   0.74690   Biso      1.000     C          -0.164052           
         C33       1.0000    0.65440   0.80580   0.56580   Biso      1.000     C          0.171646  
         C34       1.0000    0.65630   0.83760   0.43590   Biso      1.000     C          -0.278539           
         C35       1.0000    0.10240   0.71850   0.82830   Biso      1.000     C          0.0035259999999999996         
         C36       1.0000    0.15630   0.66240   0.93590   Biso      1.000     C          -0.27855100000000005          
         C37       1.0000    0.15440   0.69420   0.06580   Biso      1.000     C          0.171653  
         C38       1.0000    0.60240   0.78150   0.32830   Biso      1.000     C          0.0035259999999999996         
         C39       1.0000    0.27860   0.58800   0.49600   Biso      1.000     C          -0.104145           
         C40       1.0000    0.20960   0.62410   0.46190   Biso      1.000     C          -0.073879           
         C41       1.0000    0.16880   0.65990   0.32300   Biso      1.000     C          -0.12733599999999998          
         C42       1.0000    0.19690   0.66070   0.21640   Biso      1.000     C          0.055813999999999996          
         C43       1.0000    0.39760   0.78150   0.17170   Biso      1.000     C          0.0035229999999999997         
         C44       1.0000    0.30790   0.59010   0.39070   Biso      1.000     C          -0.023906999999999998         
         C45       1.0000    0.84560   0.30580   0.93420   Biso      1.000     C          0.171645  
         C46       1.0000    0.88430   0.05320   0.42870   Biso      1.000     C          0.609358  
         C47       1.0000    0.22140   0.91200   0.50400   Biso      1.000     C          -0.104149           
         C48       1.0000    0.84370   0.33760   0.06410   Biso      1.000     C          -0.278539           
         C49       1.0000    0.39760   0.21850   0.67170   Biso      1.000     C          0.0035259999999999996         
         C50       1.0000    0.34370   0.16240   0.56410   Biso      1.000     C          -0.278548           
         C51       1.0000    0.34560   0.19420   0.43420   Biso      1.000     C          0.17165899999999998           
         C52       1.0000    0.29040   0.87590   0.53810   Biso      1.000     C          -0.073875           
         C53       1.0000    0.22140   0.08800   0.00400   Biso      1.000     C          -0.10413800000000001          
         C54       1.0000    0.29040   0.12410   0.03810   Biso      1.000     C          -0.073882           
         C55       1.0000    0.34560   0.80580   0.93420   Biso      1.000     C          0.17164400000000002           
         C56       1.0000    0.11570   0.94680   0.57130   Biso      1.000     C          0.609348  
         C57       1.0000    0.30310   0.16070   0.28360   Biso      1.000     C          0.055813999999999996          
         C58       1.0000    0.19210   0.90990   0.60930   Biso      1.000     C          -0.023898           
         C59       1.0000    0.23220   0.12700   0.24690   Biso      1.000     C          -0.16406400000000002          
         C60       1.0000    0.19210   0.09010   0.10930   Biso      1.000     C          -0.023895           
         C61       1.0000    0.11570   0.05320   0.07130   Biso      1.000     C          0.609325  
         C62       1.0000    0.23220   0.87300   0.74690   Biso      1.000     C          -0.16406199999999999          
         C63       1.0000    0.30310   0.83930   0.78360   Biso      1.000     C          0.055816  
         C64       1.0000    0.33120   0.15990   0.17700   Biso      1.000     C          -0.127328           
         C65       1.0000    0.89760   0.28150   0.17170   Biso      1.000     C          0.003522  
         C66       1.0000    0.70960   0.87590   0.96190   Biso      1.000     C          -0.073877           
         C67       1.0000    0.79040   0.62410   0.03810   Biso      1.000     C          -0.073896           
         C68       1.0000    0.72140   0.58800   0.00400   Biso      1.000     C          -0.104119           
         C69       1.0000    0.84370   0.66240   0.56410   Biso      1.000     C          -0.278543           
         C70       1.0000    0.15630   0.33760   0.43590   Biso      1.000     C          -0.278546           
         C71       1.0000    0.89760   0.71850   0.67170   Biso      1.000     C          0.003517  
         C72       1.0000    0.15440   0.30580   0.56580   Biso      1.000     C          0.17165899999999998           
         C73       1.0000    0.80310   0.66070   0.28360   Biso      1.000     C          0.055812  
         C74       1.0000    0.27860   0.41200   0.99600   Biso      1.000     C          -0.104121           
         C75       1.0000    0.83120   0.65990   0.17700   Biso      1.000     C          -0.12732000000000002          
         C76       1.0000    0.73220   0.62700   0.24690   Biso      1.000     C          -0.16406500000000002          
         C77       1.0000    0.69210   0.59010   0.10930   Biso      1.000     C          -0.023902           
         C78       1.0000    0.61570   0.55320   0.07130   Biso      1.000     C          0.6093149999999999  
         C79       1.0000    0.10240   0.28150   0.32830   Biso      1.000     C          0.0035259999999999996         
         C80       1.0000    0.84560   0.69420   0.43420   Biso      1.000     C          0.171658  
         Eu1       1.0000    0.50000   0.55855   0.25000   Biso      1.000     Eu          1.17269   
         Eu2       1.0000    0.00000   0.94145   0.75000   Biso      1.000     Eu          1.1726860000000001  
         Eu3       1.0000    0.50000   0.44145   0.75000   Biso      1.000     Eu          1.172688  
         Eu4       1.0000    0.00000   0.05855   0.25000   Biso      1.000     Eu          1.172691  
         H1        1.0000    0.69010   0.87560   0.03310   Biso      1.000     H          0.11224500000000001           
         H2        1.0000    0.21170   0.87040   0.81640   Biso      1.000     H          0.12062300000000001           
         H3        1.0000    0.80570   0.93780   0.08930   Biso      1.000     H          0.117175  
         H4        1.0000    0.12180   0.31620   0.80070   Biso      1.000     H          0.109721  
         H5        1.0000    0.30570   0.43780   0.08930   Biso      1.000     H          0.117174  
         H6        1.0000    0.09090   0.20320   0.59580   Biso      1.000     H          0.277754  
         H7        1.0000    0.09110   0.28750   0.22800   Biso      1.000     H          0.11542999999999999           
         H8        1.0000    0.40910   0.70320   0.90420   Biso      1.000     H          0.27776100000000004           
         H9        1.0000    0.18690   0.38630   0.42260   Biso      1.000     H          0.14941   
         H10       1.0000    0.59110   0.78750   0.22800   Biso      1.000     H          0.115428  
         H11       1.0000    0.28830   0.37040   0.68360   Biso      1.000     H          0.120618  
         H12       1.0000    0.40890   0.78750   0.27200   Biso      1.000     H          0.11543599999999998           
         H13       1.0000    0.30990   0.87560   0.46690   Biso      1.000     H          0.112251  
         H14       1.0000    0.31310   0.88630   0.07740   Biso      1.000     H          0.14941400000000002           
         H15       1.0000    0.19430   0.93780   0.41070   Biso      1.000     H          0.11717999999999999           
         H16       1.0000    0.68690   0.88630   0.42260   Biso      1.000     H          0.14940799999999999           
         H17       1.0000    0.19010   0.37560   0.03310   Biso      1.000     H          0.112248  
         H18       1.0000    0.59090   0.70320   0.59580   Biso      1.000     H          0.27775900000000003           
         H19       1.0000    0.78830   0.87040   0.68360   Biso      1.000     H          0.120619  
         H20       1.0000    0.81310   0.38630   0.07740   Biso      1.000     H          0.149411  
         H21       1.0000    0.90890   0.71250   0.77200   Biso      1.000     H          0.11542999999999999           
         H22       1.0000    0.81310   0.61370   0.57740   Biso      1.000     H          0.149409  
         H23       1.0000    0.69430   0.56220   0.91070   Biso      1.000     H          0.117174  
         H24       1.0000    0.80990   0.62440   0.96690   Biso      1.000     H          0.11224500000000001           
         H25       1.0000    0.87820   0.68380   0.19930   Biso      1.000     H          0.10972   
         H26       1.0000    0.71170   0.62960   0.31640   Biso      1.000     H          0.120621  
         H27       1.0000    0.62180   0.81620   0.80070   Biso      1.000     H          0.109724  
         H28       1.0000    0.90910   0.79680   0.40420   Biso      1.000     H          0.27775700000000003           
         H29       1.0000    0.40890   0.21250   0.77200   Biso      1.000     H          0.11543099999999999           
         H30       1.0000    0.31310   0.11370   0.57740   Biso      1.000     H          0.149411  
         H31       1.0000    0.19430   0.06220   0.91070   Biso      1.000     H          0.117176  
         H32       1.0000    0.30990   0.12440   0.96690   Biso      1.000     H          0.112248  
         H33       1.0000    0.37820   0.18380   0.19930   Biso      1.000     H          0.109725  
         H34       1.0000    0.21170   0.12960   0.31640   Biso      1.000     H          0.12062   
         H35       1.0000    0.40910   0.29680   0.40420   Biso      1.000     H          0.27776   
         H36       1.0000    0.90890   0.28750   0.27200   Biso      1.000     H          0.11542999999999999           
         H37       1.0000    0.59090   0.29680   0.09580   Biso      1.000     H          0.27776100000000004           
         H38       1.0000    0.69430   0.43780   0.41070   Biso      1.000     H          0.11717799999999999           
         H39       1.0000    0.62180   0.18380   0.30070   Biso      1.000     H          0.109727  
         H40       1.0000    0.90910   0.20320   0.90420   Biso      1.000     H          0.27775500000000003           
         H41       1.0000    0.71170   0.37040   0.81640   Biso      1.000     H          0.120621  
         H42       1.0000    0.09110   0.71250   0.72800   Biso      1.000     H          0.115434  
         H43       1.0000    0.18690   0.61370   0.92260   Biso      1.000     H          0.14941400000000002           
         H44       1.0000    0.30570   0.56220   0.58930   Biso      1.000     H          0.11717899999999999           
         H45       1.0000    0.19010   0.62440   0.53310   Biso      1.000     H          0.11225   
         H46       1.0000    0.78830   0.12960   0.18360   Biso      1.000     H          0.120619  
         H47       1.0000    0.12180   0.68380   0.30070   Biso      1.000     H          0.109725  
         H48       1.0000    0.37820   0.81620   0.69930   Biso      1.000     H          0.109729  
         H49       1.0000    0.09090   0.79680   0.09580   Biso      1.000     H          0.27775700000000003           
         H50       1.0000    0.87820   0.31620   0.69930   Biso      1.000     H          0.109724  
         H51       1.0000    0.80990   0.37560   0.46690   Biso      1.000     H          0.112247  
         H52       1.0000    0.59110   0.21250   0.72800   Biso      1.000     H          0.11543099999999999           
         H53       1.0000    0.68690   0.11370   0.92260   Biso      1.000     H          0.14941   
         H54       1.0000    0.80570   0.06220   0.58930   Biso      1.000     H          0.117177  
         H55       1.0000    0.69010   0.12440   0.53310   Biso      1.000     H          0.11224400000000001           
         H56       1.0000    0.28830   0.62960   0.18360   Biso      1.000     H          0.120621  
         N1        1.0000    0.93100   0.21830   0.11370   Biso      1.000     N          -0.148671           
         N2        1.0000    0.89790   0.23480   0.96850   Biso      1.000     N          -0.151975           
         N3        1.0000    0.50000   0.33130   0.25000   Biso      1.000     N          0.7559640000000001  
         N4        1.0000    0.00000   0.16870   0.75000   Biso      1.000     N          0.755972  
         N5        1.0000    0.00000   0.83130   0.25000   Biso      1.000     N          0.755958  
         N6        1.0000    0.50000   0.66870   0.75000   Biso      1.000     N          0.75595   
         N7        1.0000    0.43100   0.71830   0.11370   Biso      1.000     N          -0.148675           
         N8        1.0000    0.39790   0.73480   0.96850   Biso      1.000     N          -0.151972           
         N9        1.0000    0.06900   0.78170   0.88630   Biso      1.000     N          -0.148671           
         N10       1.0000    0.10210   0.76520   0.03150   Biso      1.000     N          -0.151975           
         N11       1.0000    0.89790   0.76520   0.46850   Biso      1.000     N          -0.152008           
         N12       1.0000    0.93100   0.78170   0.61370   Biso      1.000     N          -0.148634           
         N13       1.0000    0.56900   0.71830   0.38630   Biso      1.000     N          -0.14865499999999998          
         N14       1.0000    0.60210   0.73480   0.53150   Biso      1.000     N          -0.151976           
         N15       1.0000    0.60210   0.26520   0.03150   Biso      1.000     N          -0.152005           
         N16       1.0000    0.56900   0.28170   0.88630   Biso      1.000     N          -0.148632           
         N17       1.0000    0.39790   0.26520   0.46850   Biso      1.000     N          -0.152003           
         N18       1.0000    0.43100   0.28170   0.61370   Biso      1.000     N          -0.14863800000000002          
         N19       1.0000    0.06900   0.21830   0.38630   Biso      1.000     N          -0.14866500000000002          
         N20       1.0000    0.10210   0.23480   0.53150   Biso      1.000     N          -0.151976           
         O1        1.0000    0.58962   0.49410   0.96590   Biso      1.000     O          -0.546568           
         O2        1.0000    0.00000   0.74260   0.25000   Biso      1.000     O          -0.380678           
         O3        1.0000    0.50000   0.24260   0.25000   Biso      1.000     O          -0.38069000000000003          
         O4        1.0000    0.91620   0.08450   0.35130   Biso      1.000     O          -0.542257           
         O5        1.0000    0.00000   0.25740   0.75000   Biso      1.000     O          -0.380682           
         O6        1.0000    0.95992   0.88250   0.29640   Biso      1.000     O          -0.455323           
         O7        1.0000    0.08962   0.99410   0.96590   Biso      1.000     O          -0.5465840000000001           
         O8        1.0000    0.91038   0.99410   0.53410   Biso      1.000     O          -0.546597           
         O9        1.0000    0.04008   0.88250   0.20360   Biso      1.000     O          -0.45532100000000003          
         O10       1.0000    0.58380   0.58450   0.14870   Biso      1.000     O          -0.5422560000000001           
         O11       1.0000    0.45992   0.38250   0.29640   Biso      1.000     O          -0.45532100000000003          
         O12       1.0000    0.54008   0.38250   0.20360   Biso      1.000     O          -0.455322           
         O13       1.0000    0.41038   0.49410   0.53410   Biso      1.000     O          -0.546632           
         O14       1.0000    0.91620   0.91550   0.85130   Biso      1.000     O          -0.542269           
         O15       1.0000    0.91038   0.00590   0.03410   Biso      1.000     O          -0.546588           
         O16       1.0000    0.04008   0.11750   0.70360   Biso      1.000     O          -0.45532399999999995          
         O17       1.0000    0.50000   0.75740   0.75000   Biso      1.000     O          -0.380684           
         O18       1.0000    0.41620   0.41550   0.85130   Biso      1.000     O          -0.5422819999999999           
         O19       1.0000    0.45992   0.61750   0.79640   Biso      1.000     O          -0.455313           
         O20       1.0000    0.58962   0.50590   0.46590   Biso      1.000     O          -0.5466   
         O21       1.0000    0.58380   0.41550   0.64870   Biso      1.000     O          -0.5422640000000001           
         O22       1.0000    0.41038   0.50590   0.03410   Biso      1.000     O          -0.546593           
         O23       1.0000    0.54008   0.61750   0.70360   Biso      1.000     O          -0.455316           
         O24       1.0000    0.08380   0.91550   0.64870   Biso      1.000     O          -0.542287           
         O25       1.0000    0.08962   0.00590   0.46590   Biso      1.000     O          -0.546605           
         O26       1.0000    0.95992   0.11750   0.79640   Biso      1.000     O          -0.455325           
         O27       1.0000    0.41620   0.58450   0.35130   Biso      1.000     O          -0.542321           
         O28       1.0000    0.08380   0.08450   0.14870   Biso      1.000     O          -0.542257 