
##########################################################################
#               Crystallographic Information Format file
#               Produced by PyCifRW module
#
#  This is a CIF file.  CIF has been adopted by the International
#  Union of Crystallography as the standard for data archiving and
#  transmission.
#
#  For information on this file format, follow the CIF links at
#  http://www.iucr.org
##########################################################################

data_image0

_cell_length_a                          19.81
_cell_length_b                          13.153
_cell_length_c                          9.806
_cell_angle_alpha                       90
_cell_angle_beta                        113.196
_cell_angle_gamma                       90
_symmetry_space_group_name_H-M          'P 1'
_symmetry_int_tables_number             1
loop_
  _symmetry_equiv_pos_as_xyz
         'x, y, z' 
loop_
  _atom_site_label
  _atom_site_occupancy
  _atom_site_fract_x
  _atom_site_fract_y
  _atom_site_fract_z
  _atom_site_thermal_displace_type
  _atom_site_B_iso_or_equiv
  _atom_site_type_symbol
  _atom_site_charge
         C1        1.0000    0.76810   0.87270   0.25240   Biso      1.000     C          -0.161323           
         C2        1.0000    0.69090   0.40950   0.10810   Biso      1.000     C          -0.029518           
         C3        1.0000    0.80910   0.90950   0.39190   Biso      1.000     C          -0.029513           
         C4        1.0000    0.88600   0.94730   0.43080   Biso      1.000     C          0.682437  
         C5        1.0000    0.73190   0.37270   0.24760   Biso      1.000     C          -0.16131900000000002          
         C6        1.0000    0.80320   0.33900   0.28440   Biso      1.000     C          0.048695999999999996          
         C7        1.0000    0.83220   0.34080   0.17710   Biso      1.000     C          -0.130962           
         C8        1.0000    0.10040   0.71970   0.32230   Biso      1.000     C          0.023452  
         C9        1.0000    0.15360   0.66260   0.43050   Biso      1.000     C          -0.280507           
         C10       1.0000    0.15380   0.69500   0.56330   Biso      1.000     C          0.167967  
         C11       1.0000    0.27910   0.58820   0.99860   Biso      1.000     C          -0.114622           
         C12       1.0000    0.69680   0.83900   0.21560   Biso      1.000     C          0.048695999999999996          
         C13       1.0000    0.20900   0.62460   0.96380   Biso      1.000     C          -0.074443           
         C14       1.0000    0.19680   0.66100   0.71560   Biso      1.000     C          0.048694  
         C15       1.0000    0.26810   0.62730   0.75240   Biso      1.000     C          -0.161323           
         C16       1.0000    0.30910   0.59050   0.89190   Biso      1.000     C          -0.029511000000000003         
         C17       1.0000    0.38600   0.55270   0.93080   Biso      1.000     C          0.682437  
         C18       1.0000    0.79100   0.37540   0.03620   Biso      1.000     C          -0.07444400000000001          
         C19       1.0000    0.72090   0.41180   0.00140   Biso      1.000     C          -0.11461500000000001          
         C20       1.0000    0.84620   0.30500   0.43670   Biso      1.000     C          0.167962  
         C21       1.0000    0.60040   0.21970   0.32230   Biso      1.000     C          0.02345   
         C22       1.0000    0.65360   0.16260   0.43050   Biso      1.000     C          -0.280508           
         C23       1.0000    0.65380   0.19500   0.56330   Biso      1.000     C          0.167969  
         C24       1.0000    0.16780   0.65920   0.82290   Biso      1.000     C          -0.130958           
         C25       1.0000    0.66780   0.84080   0.32290   Biso      1.000     C          -0.130962           
         C26       1.0000    0.70900   0.87540   0.46380   Biso      1.000     C          -0.07444400000000001          
         C27       1.0000    0.77910   0.91180   0.49860   Biso      1.000     C          -0.11461600000000001          
         C28       1.0000    0.29100   0.87540   0.03620   Biso      1.000     C          -0.074449           
         C29       1.0000    0.33220   0.84080   0.17710   Biso      1.000     C          -0.130957           
         C30       1.0000    0.30320   0.83900   0.28440   Biso      1.000     C          0.048695  
         C31       1.0000    0.23190   0.87270   0.24760   Biso      1.000     C          -0.161323           
         C32       1.0000    0.19090   0.90950   0.10810   Biso      1.000     C          -0.029513           
         C33       1.0000    0.11400   0.94730   0.06920   Biso      1.000     C          0.682437  
         C34       1.0000    0.34620   0.80500   0.43670   Biso      1.000     C          0.167962  
         C35       1.0000    0.34640   0.83740   0.56950   Biso      1.000     C          -0.280503           
         C36       1.0000    0.39960   0.78030   0.67770   Biso      1.000     C          0.023453  
         C37       1.0000    0.10040   0.28030   0.82230   Biso      1.000     C          0.023451  
         C38       1.0000    0.15360   0.33740   0.93050   Biso      1.000     C          -0.280507           
         C39       1.0000    0.15380   0.30500   0.06330   Biso      1.000     C          0.167969  
         C40       1.0000    0.27910   0.41180   0.49860   Biso      1.000     C          -0.114621           
         C41       1.0000    0.20900   0.37540   0.46380   Biso      1.000     C          -0.07444400000000001          
         C42       1.0000    0.16780   0.34080   0.32290   Biso      1.000     C          -0.130958           
         C43       1.0000    0.19680   0.33900   0.21560   Biso      1.000     C          0.048695  
         C44       1.0000    0.26810   0.37270   0.25240   Biso      1.000     C          -0.161323           
         C45       1.0000    0.30910   0.40950   0.39190   Biso      1.000     C          -0.029511000000000003         
         C46       1.0000    0.38600   0.44730   0.43080   Biso      1.000     C          0.682437  
         C47       1.0000    0.61400   0.44730   0.06920   Biso      1.000     C          0.682438  
         C48       1.0000    0.60040   0.78030   0.82230   Biso      1.000     C          0.023452  
         C49       1.0000    0.65360   0.83740   0.93050   Biso      1.000     C          -0.280508           
         C50       1.0000    0.65380   0.80500   0.06330   Biso      1.000     C          0.167966  
         C51       1.0000    0.77910   0.08820   0.99860   Biso      1.000     C          -0.114621           
         C52       1.0000    0.70900   0.12460   0.96380   Biso      1.000     C          -0.07444400000000001          
         C53       1.0000    0.22090   0.91180   0.00140   Biso      1.000     C          -0.11461500000000001          
         C54       1.0000    0.61400   0.55270   0.56920   Biso      1.000     C          0.682437  
         C55       1.0000    0.79100   0.62460   0.53620   Biso      1.000     C          -0.074449           
         C56       1.0000    0.83220   0.65920   0.67710   Biso      1.000     C          -0.130957           
         C57       1.0000    0.80320   0.66100   0.78440   Biso      1.000     C          0.048695  
         C58       1.0000    0.72090   0.58820   0.50140   Biso      1.000     C          -0.11461700000000001          
         C59       1.0000    0.22090   0.08820   0.50140   Biso      1.000     C          -0.114621           
         C60       1.0000    0.84620   0.69500   0.93670   Biso      1.000     C          0.167964  
         C61       1.0000    0.84640   0.66260   0.06950   Biso      1.000     C          -0.280503           
         C62       1.0000    0.29100   0.12460   0.53620   Biso      1.000     C          -0.074443           
         C63       1.0000    0.73190   0.62730   0.74760   Biso      1.000     C          -0.161323           
         C64       1.0000    0.69090   0.59050   0.60810   Biso      1.000     C          -0.029511000000000003         
         C65       1.0000    0.89960   0.71970   0.17770   Biso      1.000     C          0.02345   
         C66       1.0000    0.39960   0.21970   0.17770   Biso      1.000     C          0.023451  
         C67       1.0000    0.33220   0.15920   0.67710   Biso      1.000     C          -0.130958           
         C68       1.0000    0.34620   0.19500   0.93670   Biso      1.000     C          0.167962  
         C69       1.0000    0.30320   0.16100   0.78440   Biso      1.000     C          0.048695  
         C70       1.0000    0.34640   0.16260   0.06950   Biso      1.000     C          -0.280502           
         C71       1.0000    0.66780   0.15920   0.82290   Biso      1.000     C          -0.130958           
         C72       1.0000    0.69680   0.16100   0.71560   Biso      1.000     C          0.048694  
         C73       1.0000    0.84640   0.33740   0.56950   Biso      1.000     C          -0.280504           
         C74       1.0000    0.23190   0.12730   0.74760   Biso      1.000     C          -0.161323           
         C75       1.0000    0.19090   0.09050   0.60810   Biso      1.000     C          -0.029511000000000003         
         C76       1.0000    0.88600   0.05270   0.93080   Biso      1.000     C          0.682437  
         C77       1.0000    0.11400   0.05270   0.56920   Biso      1.000     C          0.682437  
         C78       1.0000    0.89960   0.28030   0.67770   Biso      1.000     C          0.023452  
         C79       1.0000    0.80910   0.09050   0.89190   Biso      1.000     C          -0.029514999999999996         
         C80       1.0000    0.76810   0.12730   0.75240   Biso      1.000     C          -0.16131800000000002          
         Er1       1.0000    0.50000   0.44126   0.25000   Biso      1.000     Er          1.963868  
         Er2       1.0000    0.50000   0.55874   0.75000   Biso      1.000     Er          1.963868  
         Er3       1.0000    0.00000   0.94126   0.25000   Biso      1.000     Er          1.9638669999999998  
         Er4       1.0000    0.00000   0.05874   0.75000   Biso      1.000     Er          1.9638669999999998  
         H1        1.0000    0.90820   0.19900   0.40540   Biso      1.000     H          0.280376  
         H2        1.0000    0.31690   0.11240   0.08420   Biso      1.000     H          0.14768900000000001           
         H3        1.0000    0.41160   0.78690   0.77900   Biso      1.000     H          0.116728  
         H4        1.0000    0.09180   0.19900   0.09460   Biso      1.000     H          0.280377  
         H5        1.0000    0.41160   0.21310   0.27900   Biso      1.000     H          0.116728  
         H6        1.0000    0.28850   0.37040   0.18170   Biso      1.000     H          0.12226   
         H7        1.0000    0.18310   0.38760   0.91580   Biso      1.000     H          0.14769000000000002           
         H8        1.0000    0.18940   0.37430   0.53580   Biso      1.000     H          0.11224500000000001           
         H9        1.0000    0.19380   0.06230   0.40730   Biso      1.000     H          0.11536800000000001           
         H10       1.0000    0.30620   0.43770   0.59270   Biso      1.000     H          0.11536800000000001           
         H11       1.0000    0.31060   0.12570   0.46420   Biso      1.000     H          0.11224500000000001           
         H12       1.0000    0.08840   0.28690   0.72100   Biso      1.000     H          0.116728  
         H13       1.0000    0.38000   0.18170   0.70040   Biso      1.000     H          0.110052  
         H14       1.0000    0.31690   0.88760   0.58420   Biso      1.000     H          0.14768900000000001           
         H15       1.0000    0.19380   0.93770   0.90730   Biso      1.000     H          0.11536800000000001           
         H16       1.0000    0.40820   0.69900   0.40540   Biso      1.000     H          0.280376  
         H17       1.0000    0.21150   0.12960   0.81830   Biso      1.000     H          0.12226   
         H18       1.0000    0.21150   0.87040   0.31830   Biso      1.000     H          0.12226   
         H19       1.0000    0.40820   0.30100   0.90540   Biso      1.000     H          0.280376  
         H20       1.0000    0.38000   0.81830   0.20040   Biso      1.000     H          0.110052  
         H21       1.0000    0.12000   0.31830   0.29960   Biso      1.000     H          0.110052  
         H22       1.0000    0.58840   0.78690   0.72100   Biso      1.000     H          0.116728  
         H23       1.0000    0.62000   0.18170   0.79960   Biso      1.000     H          0.110052  
         H24       1.0000    0.68310   0.88760   0.91580   Biso      1.000     H          0.14769000000000002           
         H25       1.0000    0.81690   0.61240   0.08420   Biso      1.000     H          0.14768900000000001           
         H26       1.0000    0.12000   0.68170   0.79960   Biso      1.000     H          0.110052  
         H27       1.0000    0.91160   0.71310   0.27900   Biso      1.000     H          0.116728  
         H28       1.0000    0.31060   0.87430   0.96420   Biso      1.000     H          0.11224500000000001           
         H29       1.0000    0.91160   0.28690   0.77900   Biso      1.000     H          0.116728  
         H30       1.0000    0.09180   0.80100   0.59460   Biso      1.000     H          0.280376  
         H31       1.0000    0.81690   0.38760   0.58420   Biso      1.000     H          0.14769000000000002           
         H32       1.0000    0.81060   0.37430   0.96420   Biso      1.000     H          0.11224500000000001           
         H33       1.0000    0.69380   0.43770   0.90730   Biso      1.000     H          0.11536800000000001           
         H34       1.0000    0.59180   0.30100   0.59460   Biso      1.000     H          0.280377  
         H35       1.0000    0.58840   0.21310   0.22100   Biso      1.000     H          0.116728  
         H36       1.0000    0.68310   0.11240   0.41580   Biso      1.000     H          0.14769000000000002           
         H37       1.0000    0.80620   0.06230   0.09270   Biso      1.000     H          0.11536800000000001           
         H38       1.0000    0.78850   0.12960   0.68170   Biso      1.000     H          0.12226   
         H39       1.0000    0.68940   0.12570   0.03580   Biso      1.000     H          0.11224500000000001           
         H40       1.0000    0.18940   0.62570   0.03580   Biso      1.000     H          0.11224400000000001           
         H41       1.0000    0.30620   0.56230   0.09270   Biso      1.000     H          0.11536800000000001           
         H42       1.0000    0.69380   0.56230   0.40730   Biso      1.000     H          0.11536800000000001           
         H43       1.0000    0.18310   0.61240   0.41580   Biso      1.000     H          0.14769000000000002           
         H44       1.0000    0.80620   0.93770   0.59270   Biso      1.000     H          0.11536800000000001           
         H45       1.0000    0.90820   0.80100   0.90540   Biso      1.000     H          0.280377  
         H46       1.0000    0.68940   0.87430   0.53580   Biso      1.000     H          0.11224500000000001           
         H47       1.0000    0.78850   0.87040   0.18170   Biso      1.000     H          0.12226   
         H48       1.0000    0.71150   0.62960   0.81830   Biso      1.000     H          0.12226   
         H49       1.0000    0.62000   0.81830   0.29960   Biso      1.000     H          0.110052  
         H50       1.0000    0.88000   0.68170   0.70040   Biso      1.000     H          0.110052  
         H51       1.0000    0.71150   0.37040   0.31830   Biso      1.000     H          0.12226   
         H52       1.0000    0.81060   0.62570   0.46420   Biso      1.000     H          0.112246  
         H53       1.0000    0.88000   0.31830   0.20040   Biso      1.000     H          0.110052  
         H54       1.0000    0.08840   0.71310   0.22100   Biso      1.000     H          0.116728  
         H55       1.0000    0.59180   0.69900   0.09460   Biso      1.000     H          0.280376  
         H56       1.0000    0.28850   0.62960   0.68170   Biso      1.000     H          0.12226   
         N1        1.0000    0.50000   0.33660   0.75000   Biso      1.000     N          0.768491  
         N2        1.0000    0.00000   0.16340   0.25000   Biso      1.000     N          0.768491  
         N3        1.0000    0.93144   0.21460   0.61810   Biso      1.000     N          -0.268971           
         N4        1.0000    0.89779   0.23160   0.47070   Biso      1.000     N          -0.142148           
         N5        1.0000    0.00000   0.83660   0.75000   Biso      1.000     N          0.768491  
         N6        1.0000    0.43144   0.28540   0.11810   Biso      1.000     N          -0.268971           
         N7        1.0000    0.43144   0.71460   0.61810   Biso      1.000     N          -0.26897  
         N8        1.0000    0.39779   0.73160   0.47070   Biso      1.000     N          -0.142148           
         N9        1.0000    0.06856   0.78540   0.38190   Biso      1.000     N          -0.268971           
         N10       1.0000    0.10221   0.76840   0.52930   Biso      1.000     N          -0.142148           
         N11       1.0000    0.56856   0.71460   0.88190   Biso      1.000     N          -0.26897  
         N12       1.0000    0.60221   0.73160   0.02930   Biso      1.000     N          -0.142148           
         N13       1.0000    0.60221   0.26840   0.52930   Biso      1.000     N          -0.14216900000000002          
         N14       1.0000    0.89779   0.76840   0.97070   Biso      1.000     N          -0.14216800000000002          
         N15       1.0000    0.93144   0.78540   0.11810   Biso      1.000     N          -0.26895  
         N16       1.0000    0.50000   0.66340   0.25000   Biso      1.000     N          0.768491  
         N17       1.0000    0.10221   0.23160   0.02930   Biso      1.000     N          -0.14216800000000002          
         N18       1.0000    0.39779   0.26840   0.97070   Biso      1.000     N          -0.142148           
         N19       1.0000    0.06856   0.21460   0.88190   Biso      1.000     N          -0.26895  
         N20       1.0000    0.56856   0.28540   0.38190   Biso      1.000     N          -0.26895  
         O1        1.0000    0.00000   0.74530   0.75000   Biso      1.000     O          -0.396291           
         O2        1.0000    0.95931   0.88710   0.79600   Biso      1.000     O          -0.518937           
         O3        1.0000    0.50000   0.24530   0.75000   Biso      1.000     O          -0.396291           
         O4        1.0000    0.08805   0.99240   0.46290   Biso      1.000     O          -0.686912           
         O5        1.0000    0.58108   0.58430   0.64700   Biso      1.000     O          -0.686972           
         O6        1.0000    0.45931   0.61290   0.29600   Biso      1.000     O          -0.518937           
         O7        1.0000    0.58805   0.50760   0.96290   Biso      1.000     O          -0.686912           
         O8        1.0000    0.08108   0.08430   0.64700   Biso      1.000     O          -0.686973           
         O9        1.0000    0.00000   0.25470   0.25000   Biso      1.000     O          -0.396291           
         O10       1.0000    0.58108   0.41570   0.14700   Biso      1.000     O          -0.686973           
         O11       1.0000    0.58805   0.49240   0.46290   Biso      1.000     O          -0.686912           
         O12       1.0000    0.04069   0.88710   0.70400   Biso      1.000     O          -0.518937           
         O13       1.0000    0.91892   0.08430   0.85300   Biso      1.000     O          -0.686973           
         O14       1.0000    0.91195   0.99240   0.03710   Biso      1.000     O          -0.686912           
         O15       1.0000    0.41892   0.58430   0.85300   Biso      1.000     O          -0.686973           
         O16       1.0000    0.41195   0.49240   0.03710   Biso      1.000     O          -0.686912           
         O17       1.0000    0.54069   0.38710   0.70400   Biso      1.000     O          -0.518937           
         O18       1.0000    0.91892   0.91570   0.35300   Biso      1.000     O          -0.686973           
         O19       1.0000    0.91195   0.00760   0.53710   Biso      1.000     O          -0.686912           
         O20       1.0000    0.04069   0.11290   0.20400   Biso      1.000     O          -0.518936           
         O21       1.0000    0.95931   0.11290   0.29600   Biso      1.000     O          -0.518937           
         O22       1.0000    0.08805   0.00760   0.96290   Biso      1.000     O          -0.686912           
         O23       1.0000    0.08108   0.91570   0.14700   Biso      1.000     O          -0.686973           
         O24       1.0000    0.41892   0.41570   0.35300   Biso      1.000     O          -0.686973           
         O25       1.0000    0.41195   0.50760   0.53710   Biso      1.000     O          -0.686912           
         O26       1.0000    0.54069   0.61290   0.20400   Biso      1.000     O          -0.518937           
         O27       1.0000    0.45931   0.38710   0.79600   Biso      1.000     O          -0.518937           
         O28       1.0000    0.50000   0.75470   0.25000   Biso      1.000     O          -0.396291 