
##########################################################################
#               Crystallographic Information Format file
#               Produced by PyCifRW module
#
#  This is a CIF file.  CIF has been adopted by the International
#  Union of Crystallography as the standard for data archiving and
#  transmission.
#
#  For information on this file format, follow the CIF links at
#  http://www.iucr.org
##########################################################################

data_image0

_cell_length_a                          15.3162
_cell_length_b                          12.6184
_cell_length_c                          15.5659
_cell_angle_alpha                       90
_cell_angle_beta                        96.165
_cell_angle_gamma                       90
_symmetry_space_group_name_H-M          'P 1'
_symmetry_int_tables_number             1
loop_
  _symmetry_equiv_pos_as_xyz
         'x, y, z' 
loop_
  _atom_site_label
  _atom_site_occupancy
  _atom_site_fract_x
  _atom_site_fract_y
  _atom_site_fract_z
  _atom_site_thermal_displace_type
  _atom_site_B_iso_or_equiv
  _atom_site_type_symbol
  _atom_site_charge
         C1        1.0000    0.53830   0.31020   0.13790   Biso      1.000     C          0.656992  
         C2        1.0000    0.50850   0.86490   0.44050   Biso      1.000     C          -0.366552           
         C3        1.0000    0.48070   0.98010   0.45455   Biso      1.000     C          -0.12359  
         C4        1.0000    0.51340   0.05220   0.38550   Biso      1.000     C          0.625678  
         C5        1.0000    0.33410   0.66840   0.46880   Biso      1.000     C          -0.165794           
         C6        1.0000    0.33880   0.73330   0.54030   Biso      1.000     C          0.083213  
         C7        1.0000    0.41290   0.60670   0.62480   Biso      1.000     C          0.090558  
         C8        1.0000    0.41100   0.53750   0.55660   Biso      1.000     C          -0.167955           
         C9        1.0000    0.37190   0.56850   0.47600   Biso      1.000     C          0.096316  
         C10       1.0000    0.36910   0.49380   0.40310   Biso      1.000     C          0.240368  
         C11       1.0000    0.88360   0.30230   0.24750   Biso      1.000     C          -0.179662           
         C12       1.0000    0.03770   0.26030   0.75460   Biso      1.000     C          0.239811  
         C13       1.0000    0.94420   0.27780   0.76380   Biso      1.000     C          0.103413  
         C14       1.0000    0.91330   0.37300   0.78890   Biso      1.000     C          -0.165794           
         C15       1.0000    0.79660   0.28230   0.25480   Biso      1.000     C          0.076144  
         C16       1.0000    0.82450   0.38610   0.79280   Biso      1.000     C          0.094578  
         C17       1.0000    0.82450   0.11390   0.29280   Biso      1.000     C          0.094581  
         C18       1.0000    0.79660   0.21770   0.75480   Biso      1.000     C          0.076139  
         C19       1.0000    0.91330   0.12700   0.28890   Biso      1.000     C          -0.165805           
         C20       1.0000    0.88360   0.19770   0.74750   Biso      1.000     C          -0.179651           
         C21       1.0000    0.94420   0.22220   0.26380   Biso      1.000     C          0.103427  
         C22       1.0000    0.36910   0.00620   0.90310   Biso      1.000     C          0.240372  
         C23       1.0000    0.37190   0.93150   0.97600   Biso      1.000     C          0.096315  
         C24       1.0000    0.41100   0.96250   0.05660   Biso      1.000     C          -0.167955           
         C25       1.0000    0.03770   0.23970   0.25460   Biso      1.000     C          0.239806  
         C26       1.0000    0.41290   0.89330   0.12480   Biso      1.000     C          0.090558  
         C27       1.0000    0.33880   0.76670   0.04030   Biso      1.000     C          0.083213  
         C28       1.0000    0.33410   0.83160   0.96880   Biso      1.000     C          -0.165793           
         C29       1.0000    0.46170   0.68980   0.86210   Biso      1.000     C          0.656991  
         C30       1.0000    0.51340   0.44780   0.88550   Biso      1.000     C          0.625678  
         C31       1.0000    0.46170   0.81020   0.36210   Biso      1.000     C          0.656992  
         C32       1.0000    0.48070   0.51990   0.95455   Biso      1.000     C          -0.12359  
         C33       1.0000    0.50850   0.63510   0.94050   Biso      1.000     C          -0.366552           
         C34       1.0000    0.96230   0.73970   0.24540   Biso      1.000     C          0.239812  
         C35       1.0000    0.49150   0.36490   0.05950   Biso      1.000     C          -0.366552           
         C36       1.0000    0.96230   0.76030   0.74540   Biso      1.000     C          0.239807  
         C37       1.0000    0.05580   0.77780   0.73620   Biso      1.000     C          0.103413  
         C38       1.0000    0.08670   0.87300   0.71110   Biso      1.000     C          -0.165794           
         C39       1.0000    0.51930   0.48010   0.04545   Biso      1.000     C          -0.12359  
         C40       1.0000    0.17550   0.88610   0.70720   Biso      1.000     C          0.094578  
         C41       1.0000    0.48660   0.55220   0.11450   Biso      1.000     C          0.625678  
         C42       1.0000    0.20340   0.71770   0.74520   Biso      1.000     C          0.076139  
         C43       1.0000    0.66590   0.16840   0.03120   Biso      1.000     C          -0.165794           
         C44       1.0000    0.11640   0.69770   0.75250   Biso      1.000     C          -0.179651           
         C45       1.0000    0.66120   0.23330   0.95970   Biso      1.000     C          0.083213  
         C46       1.0000    0.63090   0.50620   0.59690   Biso      1.000     C          0.240372  
         C47       1.0000    0.62810   0.43150   0.52400   Biso      1.000     C          0.096315  
         C48       1.0000    0.58710   0.10670   0.87520   Biso      1.000     C          0.090558  
         C49       1.0000    0.58900   0.46250   0.44340   Biso      1.000     C          -0.167955           
         C50       1.0000    0.58900   0.03750   0.94340   Biso      1.000     C          -0.167955           
         C51       1.0000    0.05580   0.72220   0.23620   Biso      1.000     C          0.103413  
         C52       1.0000    0.08670   0.62700   0.21110   Biso      1.000     C          -0.165793           
         C53       1.0000    0.53830   0.18980   0.63790   Biso      1.000     C          0.656991  
         C54       1.0000    0.17550   0.61390   0.20720   Biso      1.000     C          0.094578  
         C55       1.0000    0.20340   0.78230   0.24520   Biso      1.000     C          0.076139  
         C56       1.0000    0.58710   0.39330   0.37520   Biso      1.000     C          0.090558  
         C57       1.0000    0.11640   0.80230   0.25250   Biso      1.000     C          -0.179651           
         C58       1.0000    0.49150   0.13510   0.55950   Biso      1.000     C          -0.366552           
         C59       1.0000    0.48660   0.94780   0.61450   Biso      1.000     C          0.625678  
         C60       1.0000    0.63090   0.99380   0.09690   Biso      1.000     C          0.240367  
         C61       1.0000    0.66590   0.33160   0.53120   Biso      1.000     C          -0.165793           
         C62       1.0000    0.62810   0.06850   0.02400   Biso      1.000     C          0.096316  
         C63       1.0000    0.66120   0.26670   0.45970   Biso      1.000     C          0.083213  
         C64       1.0000    0.51930   0.01990   0.54545   Biso      1.000     C          -0.12359  
         Cd1       1.0000    0.60936   0.16989   0.26918   Biso      1.000     Cd          0.806438  
         Cd2       1.0000    0.31800   0.17354   0.31607   Biso      1.000     Cd          0.974474  
         Cd3       1.0000    0.39064   0.66989   0.23082   Biso      1.000     Cd          0.806438  
         Cd4       1.0000    0.68200   0.67354   0.18393   Biso      1.000     Cd          0.974465  
         Cd5       1.0000    0.68200   0.82646   0.68393   Biso      1.000     Cd          0.97447   
         Cd6       1.0000    0.31800   0.32646   0.81607   Biso      1.000     Cd          0.974466  
         Cd7       1.0000    0.39064   0.83011   0.73082   Biso      1.000     Cd          0.806441  
         Cd8       1.0000    0.60936   0.33011   0.76918   Biso      1.000     Cd          0.806441  
         H1        1.0000    0.49870   0.67580   0.99140   Biso      1.000     H          0.140616  
         H2        1.0000    0.31350   0.80030   0.53470   Biso      1.000     H          0.10091   
         H3        1.0000    0.30580   0.69130   0.41620   Biso      1.000     H          0.128418  
         H4        1.0000    0.41650   0.98370   0.45030   Biso      1.000     H          0.08747   
         H5        1.0000    0.49870   0.82420   0.49140   Biso      1.000     H          0.140616  
         H6        1.0000    0.41650   0.51630   0.95030   Biso      1.000     H          0.087471  
         H7        1.0000    0.04820   0.57130   0.19660   Biso      1.000     H          0.133752  
         H8        1.0000    0.42890   0.13610   0.56450   Biso      1.000     H          0.149632  
         H9        1.0000    0.19510   0.54800   0.19070   Biso      1.000     H          0.095964  
         H10       1.0000    0.50130   0.17580   0.50860   Biso      1.000     H          0.140616  
         H11       1.0000    0.24300   0.83810   0.25480   Biso      1.000     H          0.091388  
         H12       1.0000    0.58350   0.01630   0.54970   Biso      1.000     H          0.087471  
         H13       1.0000    0.09860   0.86930   0.26830   Biso      1.000     H          0.132738  
         H14       1.0000    0.69420   0.30870   0.58380   Biso      1.000     H          0.128418  
         H15       1.0000    0.68650   0.19970   0.46530   Biso      1.000     H          0.100909  
         H16       1.0000    0.56050   0.41520   0.32170   Biso      1.000     H          0.096296  
         H17       1.0000    0.56430   0.97040   0.93570   Biso      1.000     H          0.133904  
         H18       1.0000    0.56430   0.52960   0.43570   Biso      1.000     H          0.133904  
         H19       1.0000    0.56050   0.08480   0.82170   Biso      1.000     H          0.096296  
         H20       1.0000    0.09860   0.63070   0.76830   Biso      1.000     H          0.132738  
         H21       1.0000    0.68650   0.30030   0.96530   Biso      1.000     H          0.10091   
         H22       1.0000    0.24300   0.66190   0.75480   Biso      1.000     H          0.091388  
         H23       1.0000    0.69420   0.19130   0.08380   Biso      1.000     H          0.128418  
         H24       1.0000    0.19510   0.95200   0.69070   Biso      1.000     H          0.095964  
         H25       1.0000    0.04820   0.92870   0.69660   Biso      1.000     H          0.133751  
         H26       1.0000    0.58350   0.48370   0.04970   Biso      1.000     H          0.087471  
         H27       1.0000    0.50130   0.32420   0.00860   Biso      1.000     H          0.140616  
         H28       1.0000    0.43950   0.58480   0.67830   Biso      1.000     H          0.096296  
         H29       1.0000    0.43570   0.47040   0.56430   Biso      1.000     H          0.133904  
         H30       1.0000    0.57110   0.86390   0.43550   Biso      1.000     H          0.149633  
         H31       1.0000    0.42890   0.36390   0.06450   Biso      1.000     H          0.149633  
         H32       1.0000    0.31350   0.69970   0.03470   Biso      1.000     H          0.10091   
         H33       1.0000    0.43950   0.91520   0.17830   Biso      1.000     H          0.096296  
         H34       1.0000    0.80490   0.45200   0.80930   Biso      1.000     H          0.095964  
         H35       1.0000    0.80490   0.04800   0.30930   Biso      1.000     H          0.095964  
         H36       1.0000    0.43570   0.02960   0.06430   Biso      1.000     H          0.133904  
         H37       1.0000    0.90140   0.13070   0.73170   Biso      1.000     H          0.132738  
         H38       1.0000    0.95180   0.42870   0.80340   Biso      1.000     H          0.133751  
         H39       1.0000    0.75700   0.33810   0.24520   Biso      1.000     H          0.091387  
         H40       1.0000    0.95180   0.07130   0.30340   Biso      1.000     H          0.133752  
         H41       1.0000    0.90140   0.36930   0.23170   Biso      1.000     H          0.132739  
         H42       1.0000    0.30580   0.80870   0.91620   Biso      1.000     H          0.128418  
         H43       1.0000    0.57110   0.63610   0.93550   Biso      1.000     H          0.149632  
         H44       1.0000    0.75700   0.16190   0.74520   Biso      1.000     H          0.091387  
         N1        1.0000    0.63470   0.92460   0.22243   Biso      1.000     N          -0.059728           
         N2        1.0000    0.23450   0.68900   0.22540   Biso      1.000     N          -0.240886           
         N3        1.0000    0.63870   0.84910   0.16530   Biso      1.000     N          -0.099038           
         N4        1.0000    0.62990   0.01800   0.18084   Biso      1.000     N          -0.24513  
         N5        1.0000    0.23450   0.81100   0.72540   Biso      1.000     N          -0.240886           
         N6        1.0000    0.36420   0.10990   0.91471   Biso      1.000     N          -0.295684           
         N7        1.0000    0.37010   0.98200   0.81916   Biso      1.000     N          -0.24516  
         N8        1.0000    0.82490   0.77650   0.73390   Biso      1.000     N          -0.116448           
         N9        1.0000    0.36130   0.15090   0.83470   Biso      1.000     N          -0.099053           
         N10       1.0000    0.76550   0.31100   0.77460   Biso      1.000     N          -0.240886           
         N11       1.0000    0.10240   0.32100   0.79070   Biso      1.000     N          -0.308229           
         N12       1.0000    0.06790   0.18190   0.70890   Biso      1.000     N          -0.251768           
         N13       1.0000    0.15470   0.19410   0.71670   Biso      1.000     N          -0.091638           
         N14       1.0000    0.17510   0.27650   0.76610   Biso      1.000     N          -0.116382           
         N15       1.0000    0.37830   0.79600   0.11789   Biso      1.000     N          -0.23032  
         N16       1.0000    0.84530   0.69410   0.78330   Biso      1.000     N          -0.091625           
         N17       1.0000    0.36530   0.07540   0.77757   Biso      1.000     N          -0.059674           
         N18       1.0000    0.89760   0.82100   0.70930   Biso      1.000     N          -0.308198           
         N19       1.0000    0.63580   0.89010   0.08529   Biso      1.000     N          -0.29567  
         N20       1.0000    0.62170   0.29600   0.38211   Biso      1.000     N          -0.23032  
         N21       1.0000    0.63580   0.60990   0.58529   Biso      1.000     N          -0.295688           
         N22       1.0000    0.62990   0.48200   0.68084   Biso      1.000     N          -0.245157           
         N23       1.0000    0.63470   0.57540   0.72243   Biso      1.000     N          -0.059704           
         N24       1.0000    0.63870   0.65090   0.66530   Biso      1.000     N          -0.099021           
         N25       1.0000    0.17510   0.22350   0.26610   Biso      1.000     N          -0.116448           
         N26       1.0000    0.15470   0.30590   0.21670   Biso      1.000     N          -0.091624           
         N27       1.0000    0.06790   0.31810   0.20890   Biso      1.000     N          -0.251747           
         N28       1.0000    0.93210   0.68190   0.79110   Biso      1.000     N          -0.251747           
         N29       1.0000    0.10240   0.17900   0.29070   Biso      1.000     N          -0.308198           
         N30       1.0000    0.36130   0.34910   0.33470   Biso      1.000     N          -0.099071           
         N31       1.0000    0.36530   0.42460   0.27757   Biso      1.000     N          -0.059697           
         N32       1.0000    0.37010   0.51800   0.31916   Biso      1.000     N          -0.245133           
         N33       1.0000    0.36420   0.39010   0.41471   Biso      1.000     N          -0.295666           
         N34       1.0000    0.37830   0.70400   0.61789   Biso      1.000     N          -0.23032  
         N35       1.0000    0.89760   0.67900   0.20930   Biso      1.000     N          -0.30823  
         N36       1.0000    0.93210   0.81810   0.29110   Biso      1.000     N          -0.251769           
         N37       1.0000    0.84530   0.80590   0.28330   Biso      1.000     N          -0.091637           
         N38       1.0000    0.82490   0.72350   0.23390   Biso      1.000     N          -0.116382           
         N39       1.0000    0.62170   0.20400   0.88211   Biso      1.000     N          -0.23032  
         N40       1.0000    0.76550   0.18900   0.27460   Biso      1.000     N          -0.240887           
         O1        1.0000    0.40567   0.54935   0.12298   Biso      1.000     O          -0.502447           
         O2        1.0000    0.53746   0.61340   0.15864   Biso      1.000     O          -0.569796           
         O3        1.0000    0.49221   0.77770   0.83996   Biso      1.000     O          -0.589605           
         O4        1.0000    0.39328   0.84690   0.32312   Biso      1.000     O          -0.609086           
         O5        1.0000    0.59433   0.04935   0.37702   Biso      1.000     O          -0.502446           
         O6        1.0000    0.46254   0.11340   0.34136   Biso      1.000     O          -0.569797           
         O7        1.0000    0.60672   0.34690   0.17688   Biso      1.000     O          -0.609086           
         O8        1.0000    0.39328   0.65310   0.82312   Biso      1.000     O          -0.609086           
         O9        1.0000    0.59433   0.45065   0.87702   Biso      1.000     O          -0.502446           
         O10       1.0000    0.46254   0.38660   0.84136   Biso      1.000     O          -0.569796           
         O11       1.0000    0.50779   0.27770   0.66004   Biso      1.000     O          -0.589605           
         O12       1.0000    0.60672   0.15310   0.67688   Biso      1.000     O          -0.609086           
         O13       1.0000    0.40567   0.95065   0.62298   Biso      1.000     O          -0.502447           
         O14       1.0000    0.53746   0.88660   0.65864   Biso      1.000     O          -0.569797           
         O15       1.0000    0.49221   0.72230   0.33996   Biso      1.000     O          -0.589605           
         O16       1.0000    0.50779   0.22230   0.16004   Biso      1.000     O          -0.589605 