
##########################################################################
#               Crystallographic Information Format file
#               Produced by PyCifRW module
#
#  This is a CIF file.  CIF has been adopted by the International
#  Union of Crystallography as the standard for data archiving and
#  transmission.
#
#  For information on this file format, follow the CIF links at
#  http://www.iucr.org
##########################################################################

data_image0

_cell_length_a                          13.2142
_cell_length_b                          17.4938
_cell_length_c                          17.4938
_cell_angle_alpha                       90
_cell_angle_beta                        90
_cell_angle_gamma                       90
_symmetry_space_group_name_H-M          'P 1'
_symmetry_int_tables_number             1
loop_
  _symmetry_equiv_pos_as_xyz
         'x, y, z' 
loop_
  _atom_site_label
  _atom_site_occupancy
  _atom_site_fract_x
  _atom_site_fract_y
  _atom_site_fract_z
  _atom_site_thermal_displace_type
  _atom_site_B_iso_or_equiv
  _atom_site_type_symbol
  _atom_site_charge
         C1        1.0000    0.64430   0.27080   0.23630   Biso      1.000     C          0.635692  
         C2        1.0000    0.36660   0.85170   0.89170   Biso      1.000     C          -0.094124           
         C3        1.0000    0.29140   0.81050   0.92900   Biso      1.000     C          -0.01845  
         C4        1.0000    0.14430   0.72920   0.76370   Biso      1.000     C          0.635692  
         C5        1.0000    0.28360   0.81340   0.01540   Biso      1.000     C          0.585106  
         C6        1.0000    0.77890   0.88760   0.76980   Biso      1.000     C          -0.139513           
         C7        1.0000    0.77650   0.80890   0.77030   Biso      1.000     C          -0.041769           
         C8        1.0000    0.70190   0.77110   0.81210   Biso      1.000     C          -0.10072300000000001          
         C9        1.0000    0.62910   0.81400   0.85150   Biso      1.000     C          -0.082592           
         C10       1.0000    0.63340   0.89170   0.85170   Biso      1.000     C          -0.09411  
         C11       1.0000    0.70860   0.92900   0.81050   Biso      1.000     C          -0.018448           
         C12       1.0000    0.71640   0.01540   0.81340   Biso      1.000     C          0.585106  
         C13       1.0000    0.27890   0.11240   0.23020   Biso      1.000     C          -0.139513           
         C14       1.0000    0.27650   0.19110   0.22970   Biso      1.000     C          -0.041769           
         C15       1.0000    0.20190   0.22890   0.18790   Biso      1.000     C          -0.10072300000000001          
         C16       1.0000    0.12910   0.18600   0.14850   Biso      1.000     C          -0.082592           
         C17       1.0000    0.13340   0.10830   0.14830   Biso      1.000     C          -0.09411  
         C18       1.0000    0.20860   0.07100   0.18950   Biso      1.000     C          -0.018448           
         C19       1.0000    0.35570   0.23630   0.27080   Biso      1.000     C          0.635692  
         C20       1.0000    0.21640   0.98460   0.18660   Biso      1.000     C          0.585106  
         C21       1.0000    0.52890   0.26980   0.61240   Biso      1.000     C          -0.139513           
         C22       1.0000    0.52650   0.27030   0.69110   Biso      1.000     C          -0.041769           
         C23       1.0000    0.45190   0.31210   0.72890   Biso      1.000     C          -0.10072300000000001          
         C24       1.0000    0.37910   0.35150   0.68600   Biso      1.000     C          -0.082592           
         C25       1.0000    0.37090   0.85150   0.81400   Biso      1.000     C          -0.082577           
         C26       1.0000    0.38340   0.35170   0.60830   Biso      1.000     C          -0.09411  
         C27       1.0000    0.29810   0.81210   0.77110   Biso      1.000     C          -0.100725           
         C28       1.0000    0.22110   0.76980   0.88760   Biso      1.000     C          -0.13951  
         C29       1.0000    0.47110   0.61240   0.26980   Biso      1.000     C          -0.139513           
         C30       1.0000    0.47350   0.69110   0.27030   Biso      1.000     C          -0.041769           
         C31       1.0000    0.54810   0.72890   0.31210   Biso      1.000     C          -0.10072300000000001          
         C32       1.0000    0.62090   0.68600   0.35150   Biso      1.000     C          -0.082592           
         C33       1.0000    0.61660   0.60830   0.35170   Biso      1.000     C          -0.09411  
         C34       1.0000    0.54140   0.57100   0.31050   Biso      1.000     C          -0.018448           
         C35       1.0000    0.39430   0.73630   0.22920   Biso      1.000     C          0.635692  
         C36       1.0000    0.53360   0.48460   0.31340   Biso      1.000     C          0.585106  
         C37       1.0000    0.97110   0.38760   0.73020   Biso      1.000     C          -0.139513           
         C38       1.0000    0.97350   0.30890   0.72970   Biso      1.000     C          -0.041769           
         C39       1.0000    0.04810   0.27110   0.68790   Biso      1.000     C          -0.10072300000000001          
         C40       1.0000    0.12090   0.31400   0.64850   Biso      1.000     C          -0.082592           
         C41       1.0000    0.11660   0.39170   0.64830   Biso      1.000     C          -0.09411  
         C42       1.0000    0.04140   0.42900   0.68950   Biso      1.000     C          -0.018448           
         C43       1.0000    0.89430   0.26370   0.77080   Biso      1.000     C          0.635692  
         C44       1.0000    0.03360   0.51540   0.68660   Biso      1.000     C          0.585106  
         C45       1.0000    0.72110   0.23020   0.11240   Biso      1.000     C          -0.139513           
         C46       1.0000    0.72350   0.22970   0.19110   Biso      1.000     C          -0.041769           
         C47       1.0000    0.79810   0.18790   0.22890   Biso      1.000     C          -0.10072300000000001          
         C48       1.0000    0.87090   0.14850   0.18600   Biso      1.000     C          -0.082592           
         C49       1.0000    0.86660   0.14830   0.10830   Biso      1.000     C          -0.09411  
         C50       1.0000    0.79140   0.18950   0.07100   Biso      1.000     C          -0.018448           
         C51       1.0000    0.78360   0.18660   0.98460   Biso      1.000     C          0.585106  
         C52       1.0000    0.22350   0.77030   0.80890   Biso      1.000     C          -0.041769           
         C53       1.0000    0.45860   0.31050   0.57100   Biso      1.000     C          -0.018448           
         C54       1.0000    0.85570   0.76370   0.72920   Biso      1.000     C          0.635692  
         C55       1.0000    0.46640   0.31340   0.48460   Biso      1.000     C          0.585106  
         C56       1.0000    0.96640   0.68660   0.51540   Biso      1.000     C          0.5851069999999999  
         C57       1.0000    0.10570   0.77080   0.26370   Biso      1.000     C          0.635692  
         C58       1.0000    0.95860   0.68950   0.42900   Biso      1.000     C          -0.018451           
         C59       1.0000    0.88340   0.64830   0.39170   Biso      1.000     C          -0.094122           
         C60       1.0000    0.60570   0.22920   0.73630   Biso      1.000     C          0.635692  
         C61       1.0000    0.95190   0.68790   0.27110   Biso      1.000     C          -0.100725           
         C62       1.0000    0.02650   0.72970   0.30890   Biso      1.000     C          -0.04177  
         C63       1.0000    0.02890   0.73020   0.38760   Biso      1.000     C          -0.139509           
         C64       1.0000    0.87910   0.64850   0.31400   Biso      1.000     C          -0.082578           
         Cd1       1.0000    0.00000   0.66520   0.66520   Biso      1.000     Cd          0.953335  
         Cd2       1.0000    0.50000   0.33480   0.33480   Biso      1.000     Cd          0.953335  
         Cd3       1.0000    0.25000   0.83480   0.16520   Biso      1.000     Cd          0.953335  
         Cd4       1.0000    0.75000   0.16520   0.83480   Biso      1.000     Cd          0.953335  
         H1        1.0000    0.32830   0.08700   0.25830   Biso      1.000     H          0.114802  
         H2        1.0000    0.20040   0.28200   0.18620   Biso      1.000     H          0.11790199999999999           
         H3        1.0000    0.07740   0.21090   0.12230   Biso      1.000     H          0.112451  
         H4        1.0000    0.08610   0.08020   0.12070   Biso      1.000     H          0.121547  
         H5        1.0000    0.57830   0.24170   0.58700   Biso      1.000     H          0.114802  
         H6        1.0000    0.07830   0.75830   0.41300   Biso      1.000     H          0.114802  
         H7        1.0000    0.32740   0.37770   0.71090   Biso      1.000     H          0.112451  
         H8        1.0000    0.33610   0.37930   0.58020   Biso      1.000     H          0.121547  
         H9        1.0000    0.95040   0.68620   0.21800   Biso      1.000     H          0.11790199999999999           
         H10       1.0000    0.82740   0.62230   0.28910   Biso      1.000     H          0.11245   
         H11       1.0000    0.58610   0.91980   0.87930   Biso      1.000     H          0.121547  
         H12       1.0000    0.45040   0.31380   0.78200   Biso      1.000     H          0.11790199999999999           
         H13       1.0000    0.57740   0.78910   0.87770   Biso      1.000     H          0.112451  
         H14       1.0000    0.83610   0.62070   0.41980   Biso      1.000     H          0.121548  
         H15       1.0000    0.82830   0.91300   0.74170   Biso      1.000     H          0.114802  
         H16       1.0000    0.54960   0.78200   0.31380   Biso      1.000     H          0.11790199999999999           
         H17       1.0000    0.67260   0.71090   0.37770   Biso      1.000     H          0.112451  
         H18       1.0000    0.66390   0.58020   0.37930   Biso      1.000     H          0.121547  
         H19       1.0000    0.92170   0.41300   0.75830   Biso      1.000     H          0.114802  
         H20       1.0000    0.04960   0.21800   0.68620   Biso      1.000     H          0.11790199999999999           
         H21       1.0000    0.17260   0.28910   0.62230   Biso      1.000     H          0.112451  
         H22       1.0000    0.16390   0.41980   0.62070   Biso      1.000     H          0.121547  
         H23       1.0000    0.42170   0.58700   0.24170   Biso      1.000     H          0.114802  
         H24       1.0000    0.67170   0.25830   0.08700   Biso      1.000     H          0.114802  
         H25       1.0000    0.92260   0.12230   0.21090   Biso      1.000     H          0.112451  
         H26       1.0000    0.91390   0.12070   0.08020   Biso      1.000     H          0.121547  
         H27       1.0000    0.17170   0.74170   0.91300   Biso      1.000     H          0.114802  
         H28       1.0000    0.29960   0.81380   0.71800   Biso      1.000     H          0.11790199999999999           
         H29       1.0000    0.70040   0.71800   0.81380   Biso      1.000     H          0.11790199999999999           
         H30       1.0000    0.42260   0.87770   0.78910   Biso      1.000     H          0.11245   
         H31       1.0000    0.41390   0.87930   0.91980   Biso      1.000     H          0.121548  
         H32       1.0000    0.79960   0.18620   0.28200   Biso      1.000     H          0.11790199999999999           
         N1        1.0000    0.01180   0.03790   0.60250   Biso      1.000     N          0.776311  
         N2        1.0000    0.98820   0.60250   0.03790   Biso      1.000     N          0.776311  
         N3        1.0000    0.73820   0.53790   0.89750   Biso      1.000     N          0.776311  
         N4        1.0000    0.76180   0.10250   0.46210   Biso      1.000     N          0.776311  
         N5        1.0000    0.23820   0.46210   0.10250   Biso      1.000     N          0.776311  
         N6        1.0000    0.48820   0.39750   0.96210   Biso      1.000     N          0.776311  
         N7        1.0000    0.26180   0.89750   0.53790   Biso      1.000     N          0.776311  
         N8        1.0000    0.51180   0.96210   0.39750   Biso      1.000     N          0.776311  
         O1        1.0000    0.34150   0.70270   0.18020   Biso      1.000     O          -0.6625479999999999           
         O2        1.0000    0.00240   0.10880   0.60470   Biso      1.000     O          -0.463276           
         O3        1.0000    0.94050   0.99730   0.62750   Biso      1.000     O          -0.568839           
         O4        1.0000    0.08830   0.00800   0.57670   Biso      1.000     O          -0.469685           
         O5        1.0000    0.34210   0.85490   0.05170   Biso      1.000     O          -0.525834           
         O6        1.0000    0.21420   0.77510   0.04730   Biso      1.000     O          -0.651378           
         O7        1.0000    0.13170   0.74640   0.69470   Biso      1.000     O          -0.6117819999999999           
         O8        1.0000    0.09150   0.68020   0.79730   Biso      1.000     O          -0.6625479999999999           
         O9        1.0000    0.99760   0.60470   0.10880   Biso      1.000     O          -0.463276           
         O10       1.0000    0.05950   0.62750   0.99730   Biso      1.000     O          -0.568839           
         O11       1.0000    0.91170   0.57670   0.00800   Biso      1.000     O          -0.469685           
         O12       1.0000    0.84210   0.14510   0.94830   Biso      1.000     O          -0.525835           
         O13       1.0000    0.71420   0.22490   0.95270   Biso      1.000     O          -0.651378           
         O14       1.0000    0.63170   0.25360   0.30530   Biso      1.000     O          -0.6117819999999999           
         O15       1.0000    0.24760   0.39120   0.10470   Biso      1.000     O          -0.463276           
         O16       1.0000    0.59150   0.31980   0.20270   Biso      1.000     O          -0.6625479999999999           
         O17       1.0000    0.55950   0.37250   0.00270   Biso      1.000     O          -0.568839           
         O18       1.0000    0.41170   0.42330   0.99200   Biso      1.000     O          -0.469685           
         O19       1.0000    0.09210   0.55170   0.64510   Biso      1.000     O          -0.525835           
         O20       1.0000    0.96420   0.54730   0.72490   Biso      1.000     O          -0.651378           
         O21       1.0000    0.88170   0.19470   0.75360   Biso      1.000     O          -0.6117819999999999           
         O22       1.0000    0.84150   0.29730   0.81980   Biso      1.000     O          -0.6625479999999999           
         O23       1.0000    0.74760   0.60880   0.89530   Biso      1.000     O          -0.463276           
         O24       1.0000    0.90850   0.79730   0.68020   Biso      1.000     O          -0.6625479999999999           
         O25       1.0000    0.80950   0.49730   0.87250   Biso      1.000     O          -0.568839           
         O26       1.0000    0.66170   0.50800   0.92330   Biso      1.000     O          -0.469685           
         O27       1.0000    0.59210   0.44830   0.35490   Biso      1.000     O          -0.525835           
         O28       1.0000    0.46420   0.45270   0.27510   Biso      1.000     O          -0.651378           
         O29       1.0000    0.38170   0.80530   0.24640   Biso      1.000     O          -0.6117819999999999           
         O30       1.0000    0.49760   0.39530   0.89120   Biso      1.000     O          -0.463276           
         O31       1.0000    0.86830   0.69470   0.74640   Biso      1.000     O          -0.6117819999999999           
         O32       1.0000    0.16170   0.49200   0.07670   Biso      1.000     O          -0.469685           
         O33       1.0000    0.65790   0.05170   0.85490   Biso      1.000     O          -0.525835           
         O34       1.0000    0.30950   0.50270   0.12750   Biso      1.000     O          -0.568839           
         O35       1.0000    0.90790   0.64510   0.55170   Biso      1.000     O          -0.525834           
         O36       1.0000    0.03580   0.72490   0.54730   Biso      1.000     O          -0.651378           
         O37       1.0000    0.11830   0.75360   0.19470   Biso      1.000     O          -0.6117819999999999           
         O38       1.0000    0.15850   0.81980   0.29730   Biso      1.000     O          -0.6625479999999999           
         O39       1.0000    0.25240   0.89530   0.60880   Biso      1.000     O          -0.463276           
         O40       1.0000    0.19050   0.87250   0.49730   Biso      1.000     O          -0.568839           
         O41       1.0000    0.78580   0.04730   0.77510   Biso      1.000     O          -0.651378           
         O42       1.0000    0.40790   0.35490   0.44830   Biso      1.000     O          -0.525835           
         O43       1.0000    0.53580   0.27510   0.45270   Biso      1.000     O          -0.651378           
         O44       1.0000    0.61830   0.24640   0.80530   Biso      1.000     O          -0.6117819999999999           
         O45       1.0000    0.33830   0.92330   0.50800   Biso      1.000     O          -0.469685           
         O46       1.0000    0.75240   0.10470   0.39120   Biso      1.000     O          -0.463276           
         O47       1.0000    0.65850   0.18020   0.70270   Biso      1.000     O          -0.6625479999999999           
         O48       1.0000    0.44050   0.00270   0.37250   Biso      1.000     O          -0.568839           
         O49       1.0000    0.50240   0.89120   0.39530   Biso      1.000     O          -0.463276           
         O50       1.0000    0.40850   0.20270   0.31980   Biso      1.000     O          -0.6625479999999999           
         O51       1.0000    0.58830   0.99200   0.42330   Biso      1.000     O          -0.469685           
         O52       1.0000    0.28580   0.95270   0.22490   Biso      1.000     O          -0.651378           
         O53       1.0000    0.15790   0.94830   0.14510   Biso      1.000     O          -0.525835           
         O54       1.0000    0.83830   0.07670   0.49200   Biso      1.000     O          -0.469685           
         O55       1.0000    0.69050   0.12750   0.50270   Biso      1.000     O          -0.568839           
         O56       1.0000    0.36830   0.30530   0.25360   Biso      1.000     O          -0.6117819999999999           
         Sr1       1.0000    0.44668   0.38821   0.13930   Biso      1.000     Sr          1.490018  
         Sr2       1.0000    0.94668   0.61179   0.86070   Biso      1.000     Sr          1.490018  
         Sr3       1.0000    0.69668   0.36070   0.88821   Biso      1.000     Sr          1.490018  
         Sr4       1.0000    0.19668   0.63930   0.11179   Biso      1.000     Sr          1.490018  
         Sr5       1.0000    0.80332   0.11179   0.63930   Biso      1.000     Sr          1.490018  
         Sr6       1.0000    0.30332   0.88821   0.36070   Biso      1.000     Sr          1.490018  
         Sr7       1.0000    0.55332   0.13930   0.38821   Biso      1.000     Sr          1.490018  
         Sr8       1.0000    0.05332   0.86070   0.61179   Biso      1.000     Sr          1.490018 