
##########################################################################
#               Crystallographic Information Format file
#               Produced by PyCifRW module
#
#  This is a CIF file.  CIF has been adopted by the International
#  Union of Crystallography as the standard for data archiving and
#  transmission.
#
#  For information on this file format, follow the CIF links at
#  http://www.iucr.org
##########################################################################

data_image0

_cell_length_a                          19.131
_cell_length_b                          19.226
_cell_length_c                          7.1899
_cell_angle_alpha                       90
_cell_angle_beta                        90
_cell_angle_gamma                       90
_symmetry_space_group_name_H-M          'P 1'
_symmetry_int_tables_number             1
loop_
  _symmetry_equiv_pos_as_xyz
         'x, y, z' 
loop_
  _atom_site_label
  _atom_site_occupancy
  _atom_site_fract_x
  _atom_site_fract_y
  _atom_site_fract_z
  _atom_site_thermal_displace_type
  _atom_site_B_iso_or_equiv
  _atom_site_type_symbol
  _atom_site_charge
         C1        1.0000    0.44360   0.30842   0.13590   Biso      1.000     C          -0.099057           
         C2        1.0000    0.78630   0.54700   0.23170   Biso      1.000     C          0.6580560000000001  
         C3        1.0000    0.78120   0.34951   0.24880   Biso      1.000     C          -0.028272000000000002         
         C4        1.0000    0.49580   0.70450   0.73310   Biso      1.000     C          -0.073499           
         C5        1.0000    0.79610   0.33450   0.06510   Biso      1.000     C          -0.08427  
         C6        1.0000    0.43674   0.72639   0.64010   Biso      1.000     C          -0.10628399999999999          
         C7        1.0000    0.43797   0.73579   0.44880   Biso      1.000     C          -0.032464           
         C8        1.0000    0.62430   0.68719   0.33530   Biso      1.000     C          0.6161840000000001  
         C9        1.0000    0.37550   0.76141   0.34600   Biso      1.000     C          0.606787  
         C10       1.0000    0.50420   0.29550   0.23310   Biso      1.000     C          -0.073497           
         C11       1.0000    0.87550   0.73859   0.34600   Biso      1.000     C          0.606787  
         C12       1.0000    0.12430   0.81281   0.33530   Biso      1.000     C          0.6161840000000001  
         C13       1.0000    0.93797   0.76421   0.44880   Biso      1.000     C          -0.032464           
         C14       1.0000    0.93674   0.77361   0.64010   Biso      1.000     C          -0.10628699999999999          
         C15       1.0000    0.76690   0.29365   0.38690   Biso      1.000     C          0.6307159999999999  
         C16       1.0000    0.22030   0.58034   0.80250   Biso      1.000     C          -0.124322           
         C17       1.0000    0.77970   0.41966   0.30250   Biso      1.000     C          -0.124322           
         C18       1.0000    0.05640   0.80842   0.63590   Biso      1.000     C          -0.099057           
         C19       1.0000    0.79099   0.47212   0.17470   Biso      1.000     C          -0.042408999999999995         
         C20       1.0000    0.05870   0.80052   0.44410   Biso      1.000     C          -0.033516000000000004         
         C21       1.0000    0.99895   0.77877   0.35230   Biso      1.000     C          -0.11767799999999999          
         C22       1.0000    0.72030   0.91966   0.80250   Biso      1.000     C          -0.124322           
         C23       1.0000    0.73310   0.79365   0.88690   Biso      1.000     C          0.6307159999999999  
         C24       1.0000    0.71370   0.04700   0.73170   Biso      1.000     C          0.6580560000000001  
         C25       1.0000    0.71880   0.84951   0.74880   Biso      1.000     C          -0.028272000000000002         
         C26       1.0000    0.70390   0.83450   0.56510   Biso      1.000     C          -0.08426900000000001          
         C27       1.0000    0.80610   0.45473   0.99000   Biso      1.000     C          -0.111204           
         C28       1.0000    0.69040   0.88589   0.43580   Biso      1.000     C          -0.072022           
         C29       1.0000    0.70901   0.97212   0.67470   Biso      1.000     C          -0.04241  
         C30       1.0000    0.99580   0.79550   0.73310   Biso      1.000     C          -0.073494           
         C31       1.0000    0.69390   0.95473   0.49000   Biso      1.000     C          -0.1112   
         C32       1.0000    0.27970   0.08034   0.30250   Biso      1.000     C          -0.124322           
         C33       1.0000    0.55640   0.69158   0.63590   Biso      1.000     C          -0.09905499999999999          
         C34       1.0000    0.56326   0.27361   0.14010   Biso      1.000     C          -0.10628399999999999          
         C35       1.0000    0.20901   0.52788   0.67470   Biso      1.000     C          -0.042408999999999995         
         C36       1.0000    0.56203   0.26421   0.94880   Biso      1.000     C          -0.032465           
         C37       1.0000    0.19390   0.54527   0.49000   Biso      1.000     C          -0.111204           
         C38       1.0000    0.37570   0.31281   0.83530   Biso      1.000     C          0.6161840000000001  
         C39       1.0000    0.19040   0.61411   0.43580   Biso      1.000     C          -0.07202  
         C40       1.0000    0.62450   0.23859   0.84600   Biso      1.000     C          0.606787  
         C41       1.0000    0.20390   0.66550   0.56510   Biso      1.000     C          -0.084271           
         C42       1.0000    0.21880   0.65049   0.74880   Biso      1.000     C          -0.028269           
         C43       1.0000    0.12450   0.26141   0.84600   Biso      1.000     C          0.606787  
         C44       1.0000    0.87570   0.18719   0.83530   Biso      1.000     C          0.6161840000000001  
         C45       1.0000    0.06203   0.23579   0.94880   Biso      1.000     C          -0.032464           
         C46       1.0000    0.06326   0.22639   0.14010   Biso      1.000     C          -0.10628699999999999          
         C47       1.0000    0.21370   0.45300   0.73170   Biso      1.000     C          0.6580560000000001  
         C48       1.0000    0.29099   0.02788   0.17470   Biso      1.000     C          -0.042408999999999995         
         C49       1.0000    0.00420   0.20450   0.23310   Biso      1.000     C          -0.073496           
         C50       1.0000    0.94360   0.19158   0.13590   Biso      1.000     C          -0.09905499999999999          
         C51       1.0000    0.44130   0.30052   0.94410   Biso      1.000     C          -0.033516000000000004         
         C52       1.0000    0.94130   0.19948   0.94410   Biso      1.000     C          -0.033516000000000004         
         C53       1.0000    0.00105   0.22123   0.85230   Biso      1.000     C          -0.11767799999999999          
         C54       1.0000    0.49895   0.72123   0.35230   Biso      1.000     C          -0.11767999999999999          
         C55       1.0000    0.26690   0.20635   0.38690   Biso      1.000     C          0.6307159999999999  
         C56       1.0000    0.28630   0.95300   0.23170   Biso      1.000     C          0.6580560000000001  
         C57       1.0000    0.28120   0.15049   0.24880   Biso      1.000     C          -0.028272000000000002         
         C58       1.0000    0.29610   0.16550   0.06510   Biso      1.000     C          -0.08426900000000001          
         C59       1.0000    0.55870   0.69948   0.44410   Biso      1.000     C          -0.033513999999999995         
         C60       1.0000    0.30960   0.11411   0.93580   Biso      1.000     C          -0.072022           
         C61       1.0000    0.50105   0.27877   0.85230   Biso      1.000     C          -0.11767799999999999          
         C62       1.0000    0.30610   0.04527   0.99000   Biso      1.000     C          -0.1112   
         C63       1.0000    0.23310   0.70635   0.88690   Biso      1.000     C          0.6307159999999999  
         C64       1.0000    0.80960   0.38589   0.93580   Biso      1.000     C          -0.072019           
         Ca1       1.0000    0.73236   0.14023   0.13047   Biso      1.000     Ca          1.538078  
         Ca2       1.0000    0.26764   0.85977   0.63047   Biso      1.000     Ca          1.538078  
         Ca3       1.0000    0.23236   0.35977   0.13047   Biso      1.000     Ca          1.538078  
         Ca4       1.0000    0.76764   0.64023   0.63047   Biso      1.000     Ca          1.5380790000000002  
         Cd1       1.0000    0.24558   0.30070   0.66330   Biso      1.000     Cd          0.966353  
         Cd2       1.0000    0.74558   0.19930   0.66330   Biso      1.000     Cd          0.966353  
         Cd3       1.0000    0.25442   0.80070   0.16330   Biso      1.000     Cd          0.966353  
         Cd4       1.0000    0.75442   0.69930   0.16330   Biso      1.000     Cd          0.966353  
         H1        1.0000    0.40370   0.32260   0.19950   Biso      1.000     H          0.105273  
         H2        1.0000    0.18610   0.51020   0.40320   Biso      1.000     H          0.099567  
         H3        1.0000    0.17910   0.62570   0.31390   Biso      1.000     H          0.11978599999999999           
         H4        1.0000    0.20290   0.71170   0.52720   Biso      1.000     H          0.102176  
         H5        1.0000    0.49980   0.72620   0.22360   Biso      1.000     H          0.1229    
         H6        1.0000    0.81390   0.48980   0.90320   Biso      1.000     H          0.099567  
         H7        1.0000    0.82090   0.37430   0.81390   Biso      1.000     H          0.11978599999999999           
         H8        1.0000    0.49460   0.69860   0.86140   Biso      1.000     H          0.119281  
         H9        1.0000    0.39580   0.73490   0.70610   Biso      1.000     H          0.110749  
         H10       1.0000    0.79710   0.28830   0.02720   Biso      1.000     H          0.102176  
         H11       1.0000    0.77090   0.43100   0.42600   Biso      1.000     H          0.120076  
         H12       1.0000    0.59630   0.67740   0.69950   Biso      1.000     H          0.105272  
         H13       1.0000    0.50020   0.27380   0.72360   Biso      1.000     H          0.1229    
         H14       1.0000    0.72910   0.93100   0.92600   Biso      1.000     H          0.120076  
         H15       1.0000    0.60420   0.26510   0.20610   Biso      1.000     H          0.110749  
         H16       1.0000    0.10420   0.23490   0.20610   Biso      1.000     H          0.11075   
         H17       1.0000    0.00540   0.19860   0.36140   Biso      1.000     H          0.119281  
         H18       1.0000    0.90370   0.17740   0.19950   Biso      1.000     H          0.105272  
         H19       1.0000    0.00020   0.22620   0.72360   Biso      1.000     H          0.1229    
         H20       1.0000    0.29710   0.21170   0.02720   Biso      1.000     H          0.102176  
         H21       1.0000    0.32090   0.12570   0.81390   Biso      1.000     H          0.11978599999999999           
         H22       1.0000    0.31390   0.01020   0.90320   Biso      1.000     H          0.099566  
         H23       1.0000    0.27090   0.06900   0.42600   Biso      1.000     H          0.120076  
         H24       1.0000    0.50540   0.30140   0.36140   Biso      1.000     H          0.119281  
         H25       1.0000    0.89580   0.76510   0.70610   Biso      1.000     H          0.11075   
         H26       1.0000    0.99460   0.80140   0.86140   Biso      1.000     H          0.119281  
         H27       1.0000    0.09630   0.82260   0.69950   Biso      1.000     H          0.105273  
         H28       1.0000    0.22910   0.56900   0.92600   Biso      1.000     H          0.120076  
         H29       1.0000    0.70290   0.78830   0.52720   Biso      1.000     H          0.102176  
         H30       1.0000    0.67910   0.87430   0.31390   Biso      1.000     H          0.11978599999999999           
         H31       1.0000    0.68610   0.98980   0.40320   Biso      1.000     H          0.099566  
         H32       1.0000    0.99980   0.77380   0.22360   Biso      1.000     H          0.1229    
         O1        1.0000    0.37560   0.30775   0.66420   Biso      1.000     O          -0.5364369999999999           
         O2        1.0000    0.31998   0.32547   0.92440   Biso      1.000     O          -0.7071430000000001           
         O3        1.0000    0.75726   0.23158   0.33340   Biso      1.000     O          -0.703479           
         O4        1.0000    0.76508   0.30931   0.55480   Biso      1.000     O          -0.520466           
         O5        1.0000    0.77879   0.59056   0.10160   Biso      1.000     O          -0.610013           
         O6        1.0000    0.78972   0.56121   0.39900   Biso      1.000     O          -0.680828           
         O7        1.0000    0.28972   0.93879   0.39900   Biso      1.000     O          -0.680828           
         O8        1.0000    0.26508   0.19069   0.55480   Biso      1.000     O          -0.520466           
         O9        1.0000    0.25726   0.26842   0.33340   Biso      1.000     O          -0.703479           
         O10       1.0000    0.81998   0.17453   0.92440   Biso      1.000     O          -0.7071430000000001           
         O11       1.0000    0.87560   0.19225   0.66420   Biso      1.000     O          -0.5364369999999999           
         O12       1.0000    0.12309   0.26548   0.67180   Biso      1.000     O          -0.5454829999999999           
         O13       1.0000    0.17840   0.27732   0.93700   Biso      1.000     O          -0.687142           
         O14       1.0000    0.27879   0.90944   0.10160   Biso      1.000     O          -0.610013           
         O15       1.0000    0.62309   0.23452   0.67180   Biso      1.000     O          -0.5454829999999999           
         O16       1.0000    0.82160   0.72268   0.43700   Biso      1.000     O          -0.687142           
         O17       1.0000    0.87691   0.73452   0.17180   Biso      1.000     O          -0.5454829999999999           
         O18       1.0000    0.12440   0.80775   0.16420   Biso      1.000     O          -0.5364369999999999           
         O19       1.0000    0.18002   0.82547   0.42440   Biso      1.000     O          -0.7071430000000001           
         O20       1.0000    0.74274   0.73158   0.83340   Biso      1.000     O          -0.703479           
         O21       1.0000    0.73492   0.80931   0.05480   Biso      1.000     O          -0.520466           
         O22       1.0000    0.21028   0.43879   0.89900   Biso      1.000     O          -0.680828           
         O23       1.0000    0.23492   0.69069   0.05480   Biso      1.000     O          -0.520466           
         O24       1.0000    0.24274   0.76842   0.83340   Biso      1.000     O          -0.703479           
         O25       1.0000    0.68002   0.67453   0.42440   Biso      1.000     O          -0.7071430000000001           
         O26       1.0000    0.62440   0.69225   0.16420   Biso      1.000     O          -0.5364369999999999           
         O27       1.0000    0.37691   0.76548   0.17180   Biso      1.000     O          -0.5454829999999999           
         O28       1.0000    0.32160   0.77732   0.43700   Biso      1.000     O          -0.687142           
         O29       1.0000    0.72121   0.09056   0.60160   Biso      1.000     O          -0.610013           
         O30       1.0000    0.71028   0.06121   0.89900   Biso      1.000     O          -0.680828           
         O31       1.0000    0.67840   0.22268   0.93700   Biso      1.000     O          -0.687142           
         O32       1.0000    0.22121   0.40944   0.60160   Biso      1.000     O          -0.610013 