
##########################################################################
#               Crystallographic Information Format file
#               Produced by PyCifRW module
#
#  This is a CIF file.  CIF has been adopted by the International
#  Union of Crystallography as the standard for data archiving and
#  transmission.
#
#  For information on this file format, follow the CIF links at
#  http://www.iucr.org
##########################################################################

data_image0

_cell_length_a                          14.2086
_cell_length_b                          15.5883
_cell_length_c                          15.5883
_cell_angle_alpha                       78.0122
_cell_angle_beta                        62.8871
_cell_angle_gamma                       62.8871
_symmetry_space_group_name_H-M          'P 1'
_symmetry_int_tables_number             1
loop_
  _symmetry_equiv_pos_as_xyz
         'x, y, z' 
loop_
  _atom_site_label
  _atom_site_occupancy
  _atom_site_fract_x
  _atom_site_fract_y
  _atom_site_fract_z
  _atom_site_thermal_displace_type
  _atom_site_B_iso_or_equiv
  _atom_site_type_symbol
  _atom_site_charge
         C1        1.0000    0.37670   0.75440   0.29380   Biso      1.000     C          -0.153793           
         C2        1.0000    0.17392   0.78278   0.37078   Biso      1.000     C          -0.251653           
         C3        1.0000    0.19890   0.70600   0.32060   Biso      1.000     C          0.366672  
         C4        1.0000    0.31200   0.65280   0.25800   Biso      1.000     C          -0.26981700000000003          
         C5        1.0000    0.40135   0.67745   0.24405   Biso      1.000     C          -0.021485           
         C6        1.0000    0.23321   0.89039   0.41339   Biso      1.000     C          0.6377649999999999  
         C7        1.0000    0.52150   0.61910   0.17430   Biso      1.000     C          0.604183  
         C8        1.0000    0.30420   0.17430   0.38090   Biso      1.000     C          0.608402  
         C9        1.0000    0.35340   0.41339   0.10961   Biso      1.000     C          0.636469  
         C10       1.0000    0.35460   0.24405   0.32255   Biso      1.000     C          -0.022337           
         C11       1.0000    0.43000   0.25800   0.34720   Biso      1.000     C          -0.271515           
         C12       1.0000    0.48050   0.32060   0.29400   Biso      1.000     C          0.36711900000000003           
         C13       1.0000    0.45530   0.37078   0.21722   Biso      1.000     C          -0.24953499999999998          
         C14       1.0000    0.38070   0.35677   0.19203   Biso      1.000     C          0.008891  
         C15       1.0000    0.26253   0.80797   0.35677   Biso      1.000     C          0.007515000000000001          
         C16       1.0000    0.32950   0.29380   0.24560   Biso      1.000     C          -0.15676199999999998          
         C17       1.0000    0.87640   0.58661   0.89039   Biso      1.000     C          0.635894  
         C18       1.0000    0.92120   0.75595   0.67745   Biso      1.000     C          -0.020256           
         C19       1.0000    0.03520   0.74200   0.65280   Biso      1.000     C          -0.27081500000000003          
         C20       1.0000    0.09510   0.67940   0.70600   Biso      1.000     C          0.36428   
         C21       1.0000    0.04330   0.62922   0.78278   Biso      1.000     C          -0.24946100000000002          
         C22       1.0000    0.92950   0.64323   0.80797   Biso      1.000     C          0.008454000000000001          
         C23       1.0000    0.86890   0.70620   0.75440   Biso      1.000     C          -0.156147           
         C24       1.0000    0.31490   0.38090   0.82570   Biso      1.000     C          0.607402  
         C25       1.0000    0.53699   0.10961   0.58661   Biso      1.000     C          0.635063  
         C26       1.0000    0.32285   0.32255   0.75595   Biso      1.000     C          -0.022425999999999998         
         C27       1.0000    0.22280   0.34720   0.74200   Biso      1.000     C          -0.26817199999999997          
         C28       1.0000    0.22550   0.29400   0.67940   Biso      1.000     C          0.365588  
         C29       1.0000    0.32748   0.21722   0.62922   Biso      1.000     C          -0.251256           
         C30       1.0000    0.85940   0.82570   0.61910   Biso      1.000     C          0.604066  
         C31       1.0000    0.35940   0.61910   0.82570   Biso      1.000     C          0.60406   
         C32       1.0000    0.37640   0.89039   0.58661   Biso      1.000     C          0.635885  
         C33       1.0000    0.42120   0.67745   0.75595   Biso      1.000     C          -0.020259           
         C34       1.0000    0.92490   0.70620   0.24560   Biso      1.000     C          -0.154393           
         C35       1.0000    0.92727   0.64323   0.19203   Biso      1.000     C          0.009276999999999999          
         C36       1.0000    0.82748   0.62922   0.21722   Biso      1.000     C          -0.251259           
         C37       1.0000    0.72550   0.67940   0.29400   Biso      1.000     C          0.365586  
         C38       1.0000    0.72280   0.74200   0.34720   Biso      1.000     C          -0.268176           
         C39       1.0000    0.82285   0.75595   0.32255   Biso      1.000     C          -0.022425999999999998         
         C40       1.0000    0.03699   0.58661   0.10961   Biso      1.000     C          0.635061  
         C41       1.0000    0.81490   0.82570   0.38090   Biso      1.000     C          0.607398  
         C42       1.0000    0.87670   0.29380   0.75440   Biso      1.000     C          -0.153793           
         C43       1.0000    0.76253   0.35677   0.80797   Biso      1.000     C          0.007517  
         C44       1.0000    0.67392   0.37078   0.78278   Biso      1.000     C          -0.251658           
         C45       1.0000    0.69890   0.32060   0.70600   Biso      1.000     C          0.36667   
         C46       1.0000    0.81200   0.25800   0.65280   Biso      1.000     C          -0.26981900000000003          
         C47       1.0000    0.90135   0.24405   0.67745   Biso      1.000     C          -0.021484           
         C48       1.0000    0.73321   0.41339   0.89039   Biso      1.000     C          0.637761  
         C49       1.0000    0.02150   0.17430   0.61910   Biso      1.000     C          0.6041850000000001  
         C50       1.0000    0.82950   0.24560   0.29380   Biso      1.000     C          -0.15676600000000002          
         C51       1.0000    0.88070   0.19203   0.35677   Biso      1.000     C          0.008887  
         C52       1.0000    0.95530   0.21722   0.37078   Biso      1.000     C          -0.249533           
         C53       1.0000    0.98050   0.29400   0.32060   Biso      1.000     C          0.36711900000000003           
         C54       1.0000    0.93000   0.34720   0.25800   Biso      1.000     C          -0.271509           
         C55       1.0000    0.85460   0.32255   0.24405   Biso      1.000     C          -0.022336           
         C56       1.0000    0.85340   0.10961   0.41339   Biso      1.000     C          0.63647   
         C57       1.0000    0.80420   0.38090   0.17430   Biso      1.000     C          0.608403  
         C58       1.0000    0.36890   0.75440   0.70620   Biso      1.000     C          -0.156147           
         C59       1.0000    0.42950   0.80797   0.64323   Biso      1.000     C          0.00845   
         C60       1.0000    0.54330   0.78278   0.62922   Biso      1.000     C          -0.24945799999999999          
         C61       1.0000    0.59510   0.70600   0.67940   Biso      1.000     C          0.36428   
         C62       1.0000    0.53520   0.65280   0.74200   Biso      1.000     C          -0.270808           
         C63       1.0000    0.42727   0.19203   0.64323   Biso      1.000     C          0.009273  
         C64       1.0000    0.42490   0.24560   0.70620   Biso      1.000     C          -0.154392           
         Ca1       1.0000    0.54746   0.00000   0.40508   Biso      1.000     Ca          1.5316379999999998  
         Ca2       1.0000    0.95254   0.00000   0.59492   Biso      1.000     Ca          1.531595  
         Ca3       1.0000    0.04746   0.40508   0.00000   Biso      1.000     Ca          1.5316450000000001  
         Ca4       1.0000    0.45254   0.59492   0.00000   Biso      1.000     Ca          1.531596  
         Cd1       1.0000    0.23224   0.03553   0.50000   Biso      1.000     Cd          0.975218  
         Cd2       1.0000    0.76776   0.96447   0.50000   Biso      1.000     Cd          0.9744079999999999  
         Cd3       1.0000    0.26777   0.50000   0.96446   Biso      1.000     Cd          0.9743930000000001  
         Cd4       1.0000    0.73223   0.50000   0.03554   Biso      1.000     Cd          0.975251  
         H1        1.0000    0.82950   0.58620   0.18240   Biso      1.000     H          0.14188699999999999           
         H2        1.0000    0.15460   0.39940   0.77480   Biso      1.000     H          0.13139   
         H3        1.0000    0.12520   0.27320   0.65440   Biso      1.000     H          0.396054  
         H4        1.0000    0.79360   0.71470   0.77030   Biso      1.000     H          0.124569  
         H5        1.0000    0.08430   0.58620   0.81760   Biso      1.000     H          0.141073  
         H6        1.0000    0.07060   0.77480   0.60060   Biso      1.000     H          0.132076  
         H7        1.0000    0.60160   0.34560   0.27320   Biso      1.000     H          0.395284  
         H8        1.0000    0.48810   0.41380   0.18240   Biso      1.000     H          0.140474  
         H9        1.0000    0.44600   0.22520   0.39940   Biso      1.000     H          0.131557  
         H10       1.0000    0.32950   0.18240   0.58620   Biso      1.000     H          0.14188699999999999           
         H11       1.0000    0.99170   0.71470   0.22970   Biso      1.000     H          0.123537  
         H12       1.0000    0.22040   0.65440   0.72680   Biso      1.000     H          0.392487  
         H13       1.0000    0.49170   0.22970   0.71470   Biso      1.000     H          0.123537  
         H14       1.0000    0.27860   0.28530   0.22970   Biso      1.000     H          0.125661  
         H15       1.0000    0.32880   0.60060   0.22520   Biso      1.000     H          0.131894  
         H16       1.0000    0.05280   0.72680   0.34560   Biso      1.000     H          0.393867  
         H17       1.0000    0.62520   0.65440   0.27320   Biso      1.000     H          0.396047  
         H18       1.0000    0.93610   0.28530   0.77030   Biso      1.000     H          0.122841  
         H19       1.0000    0.59810   0.41380   0.81760   Biso      1.000     H          0.142156  
         H20       1.0000    0.82880   0.22520   0.60060   Biso      1.000     H          0.131893  
         H21       1.0000    0.55280   0.34560   0.72680   Biso      1.000     H          0.393859  
         H22       1.0000    0.77860   0.22970   0.28530   Biso      1.000     H          0.125659  
         H23       1.0000    0.98810   0.18240   0.41380   Biso      1.000     H          0.140477  
         H24       1.0000    0.65460   0.77480   0.39940   Biso      1.000     H          0.13138699999999998           
         H25       1.0000    0.10160   0.27320   0.34560   Biso      1.000     H          0.39529200000000003           
         H26       1.0000    0.29360   0.77030   0.71470   Biso      1.000     H          0.124569  
         H27       1.0000    0.58430   0.81760   0.58620   Biso      1.000     H          0.141074  
         H28       1.0000    0.57060   0.60060   0.77480   Biso      1.000     H          0.132077  
         H29       1.0000    0.72040   0.72680   0.65440   Biso      1.000     H          0.392496  
         H30       1.0000    0.43610   0.77030   0.28530   Biso      1.000     H          0.122841  
         H31       1.0000    0.09810   0.81760   0.41380   Biso      1.000     H          0.142158  
         H32       1.0000    0.94600   0.39940   0.22520   Biso      1.000     H          0.13155799999999998           
         O1        1.0000    0.27284   0.61803   0.82369   Biso      1.000     O          -0.531668           
         O2        1.0000    0.26726   0.92414   0.61314   Biso      1.000     O          -0.561591           
         O3        1.0000    0.43902   0.92416   0.51840   Biso      1.000     O          -0.674709           
         O4        1.0000    0.70440   0.67990   0.67070   Biso      1.000     O          -0.507616           
         O5        1.0000    0.85611   0.42893   0.11125   Biso      1.000     O          -0.685125           
         O6        1.0000    0.71456   0.38197   0.17631   Biso      1.000     O          -0.533482           
         O7        1.0000    0.80454   0.07586   0.38686   Biso      1.000     O          -0.561563           
         O8        1.0000    0.88158   0.07584   0.48160   Biso      1.000     O          -0.676484           
         O9        1.0000    0.80860   0.38686   0.92414   Biso      1.000     O          -0.562278           
         O10       1.0000    0.03264   0.11125   0.57107   Biso      1.000     O          -0.683535           
         O11       1.0000    0.10913   0.17631   0.61803   Biso      1.000     O          -0.5317350000000001           
         O12       1.0000    0.63682   0.48160   0.92416   Biso      1.000     O          -0.675387           
         O13       1.0000    0.61570   0.32930   0.67990   Biso      1.000     O          -0.510678           
         O14       1.0000    0.71496   0.88875   0.42893   Biso      1.000     O          -0.6851470000000001           
         O15       1.0000    0.90347   0.82369   0.38197   Biso      1.000     O          -0.53352  
         O16       1.0000    0.11960   0.61314   0.07586   Biso      1.000     O          -0.5609810000000001           
         O17       1.0000    0.39629   0.57107   0.88875   Biso      1.000     O          -0.683208           
         O18       1.0000    0.05500   0.32010   0.32930   Biso      1.000     O          -0.510831           
         O19       1.0000    0.11570   0.67990   0.32930   Biso      1.000     O          -0.510683           
         O20       1.0000    0.35611   0.11125   0.42893   Biso      1.000     O          -0.685116           
         O21       1.0000    0.30860   0.92414   0.38686   Biso      1.000     O          -0.562287           
         O22       1.0000    0.04258   0.51840   0.07584   Biso      1.000     O          -0.6752090000000001           
         O23       1.0000    0.21456   0.17631   0.38197   Biso      1.000     O          -0.533489           
         O24       1.0000    0.30454   0.38686   0.07586   Biso      1.000     O          -0.5615680000000001           
         O25       1.0000    0.38158   0.48160   0.07584   Biso      1.000     O          -0.676491           
         O26       1.0000    0.55500   0.32930   0.32010   Biso      1.000     O          -0.510825           
         O27       1.0000    0.89629   0.88875   0.57107   Biso      1.000     O          -0.683235           
         O28       1.0000    0.77284   0.82369   0.61803   Biso      1.000     O          -0.531684           
         O29       1.0000    0.76726   0.61314   0.92414   Biso      1.000     O          -0.561631           
         O30       1.0000    0.93902   0.51840   0.92416   Biso      1.000     O          -0.674718           
         O31       1.0000    0.20440   0.67070   0.67990   Biso      1.000     O          -0.507613           
         O32       1.0000    0.21496   0.42893   0.88875   Biso      1.000     O          -0.6851619999999999           
         O33       1.0000    0.40347   0.38197   0.82369   Biso      1.000     O          -0.533519           
         O34       1.0000    0.61960   0.07586   0.61314   Biso      1.000     O          -0.5609890000000001           
         O35       1.0000    0.54258   0.07584   0.51840   Biso      1.000     O          -0.6752060000000001           
         O36       1.0000    0.12490   0.32010   0.67070   Biso      1.000     O          -0.512079           
         O37       1.0000    0.53264   0.57107   0.11125   Biso      1.000     O          -0.6835359999999999           
         O38       1.0000    0.60913   0.61803   0.17631   Biso      1.000     O          -0.53173  
         O39       1.0000    0.13682   0.92416   0.48160   Biso      1.000     O          -0.6753779999999999           
         O40       1.0000    0.62490   0.67070   0.32010   Biso      1.000     O          -0.512075 