
##########################################################################
#               Crystallographic Information Format file
#               Produced by PyCifRW module
#
#  This is a CIF file.  CIF has been adopted by the International
#  Union of Crystallography as the standard for data archiving and
#  transmission.
#
#  For information on this file format, follow the CIF links at
#  http://www.iucr.org
##########################################################################

data_image0

_cell_length_a                          7.6233
_cell_length_b                          13.0266
_cell_length_c                          29.191
_cell_angle_alpha                       90
_cell_angle_beta                        90
_cell_angle_gamma                       102.998
_symmetry_space_group_name_H-M          'P 1'
_symmetry_int_tables_number             1
loop_
  _symmetry_equiv_pos_as_xyz
         'x, y, z' 
loop_
  _atom_site_label
  _atom_site_occupancy
  _atom_site_fract_x
  _atom_site_fract_y
  _atom_site_fract_z
  _atom_site_thermal_displace_type
  _atom_site_B_iso_or_equiv
  _atom_site_type_symbol
  _atom_site_charge
         C1        1.0000    0.71820   0.54020   0.72609   Biso      1.000     C          0.111393  
         C2        1.0000    0.33980   0.60130   0.15586   Biso      1.000     C          -0.115295           
         C3        1.0000    0.40040   0.53530   0.12582   Biso      1.000     C          -0.107467           
         C4        1.0000    0.28320   0.45270   0.10461   Biso      1.000     C          0.013938  
         C5        1.0000    0.09810   0.43530   0.11367   Biso      1.000     C          -0.037695           
         C6        1.0000    0.03660   0.50280   0.14339   Biso      1.000     C          -0.13699  
         C7        1.0000    0.15720   0.58470   0.16416   Biso      1.000     C          -0.096297           
         C8        1.0000    0.50380   0.74280   0.66215   Biso      1.000     C          -0.05006  
         C9        1.0000    0.38330   0.66530   0.63880   Biso      1.000     C          -0.15048  
         C10       1.0000    0.44510   0.59940   0.60819   Biso      1.000     C          -0.044059           
         C11       1.0000    0.63100   0.61210   0.60155   Biso      1.000     C          -0.060644           
         C12       1.0000    0.96180   0.34760   0.09115   Biso      1.000     C          0.636749  
         C13       1.0000    0.74940   0.69200   0.62506   Biso      1.000     C          -0.077611           
         C14       1.0000    0.30350   0.51880   0.58351   Biso      1.000     C          0.637997  
         C15       1.0000    0.70780   0.53970   0.57103   Biso      1.000     C          0.595805  
         C16       1.0000    0.95250   0.48850   0.68347   Biso      1.000     C          0.099808  
         C17       1.0000    0.89910   0.55010   0.71687   Biso      1.000     C          -0.181606           
         C18       1.0000    0.60040   0.46570   0.70066   Biso      1.000     C          -0.18389  
         C19       1.0000    0.66370   0.40720   0.66757   Biso      1.000     C          0.093428  
         C20       1.0000    0.65420   0.60690   0.76099   Biso      1.000     C          0.104362  
         C21       1.0000    0.77080   0.68610   0.78474   Biso      1.000     C          -0.185387           
         C22       1.0000    0.70640   0.74300   0.81747   Biso      1.000     C          0.098852  
         C23       1.0000    0.41790   0.65460   0.80507   Biso      1.000     C          0.101558  
         C24       1.0000    0.68710   0.75700   0.65543   Biso      1.000     C          -0.10742  
         C25       1.0000    0.47290   0.59190   0.77219   Biso      1.000     C          -0.186463           
         C26       1.0000    0.36330   0.38490   0.07156   Biso      1.000     C          0.575747  
         C27       1.0000    0.11670   0.83470   0.13880   Biso      1.000     C          -0.150481           
         C28       1.0000    0.16020   0.89870   0.65586   Biso      1.000     C          -0.115295           
         C29       1.0000    0.09960   0.96470   0.62582   Biso      1.000     C          -0.107467           
         C30       1.0000    0.21680   0.04730   0.60461   Biso      1.000     C          0.013938  
         C31       1.0000    0.40190   0.06470   0.61367   Biso      1.000     C          -0.037695           
         C32       1.0000    0.46340   0.99720   0.64339   Biso      1.000     C          -0.13699  
         C33       1.0000    0.34280   0.91530   0.66416   Biso      1.000     C          -0.096297           
         C34       1.0000    0.02710   0.90810   0.27219   Biso      1.000     C          -0.186464           
         C35       1.0000    0.08210   0.84540   0.30507   Biso      1.000     C          0.101558  
         C36       1.0000    0.79360   0.75700   0.31747   Biso      1.000     C          0.098845  
         C37       1.0000    0.72920   0.81390   0.28474   Biso      1.000     C          -0.18538  
         C38       1.0000    0.99620   0.75720   0.16215   Biso      1.000     C          -0.050059           
         C39       1.0000    0.84580   0.89310   0.26099   Biso      1.000     C          0.104361  
         C40       1.0000    0.89960   0.03430   0.20066   Biso      1.000     C          -0.183891           
         C41       1.0000    0.78180   0.95980   0.22609   Biso      1.000     C          0.111393  
         C42       1.0000    0.60090   0.94990   0.21687   Biso      1.000     C          -0.181608           
         C43       1.0000    0.54750   0.01150   0.18347   Biso      1.000     C          0.09981   
         C44       1.0000    0.79220   0.96030   0.07103   Biso      1.000     C          0.595804  
         C45       1.0000    0.19650   0.98120   0.08351   Biso      1.000     C          0.637997  
         C46       1.0000    0.81290   0.74300   0.15543   Biso      1.000     C          -0.107423           
         C47       1.0000    0.75060   0.80800   0.12506   Biso      1.000     C          -0.077608           
         C48       1.0000    0.86900   0.88790   0.10155   Biso      1.000     C          -0.060644           
         C49       1.0000    0.05490   0.90060   0.10819   Biso      1.000     C          -0.044059           
         C50       1.0000    0.83630   0.09280   0.16757   Biso      1.000     C          0.093428  
         C51       1.0000    0.84280   0.41530   0.83584   Biso      1.000     C          -0.096305           
         C52       1.0000    0.96340   0.49720   0.85661   Biso      1.000     C          -0.136986           
         C53       1.0000    0.90190   0.56470   0.88633   Biso      1.000     C          -0.037696           
         C54       1.0000    0.90040   0.03530   0.37418   Biso      1.000     C          -0.107472           
         C55       1.0000    0.83980   0.10130   0.34414   Biso      1.000     C          -0.11529  
         C56       1.0000    0.46180   0.84760   0.40885   Biso      1.000     C          0.63675   
         C57       1.0000    0.86330   0.88490   0.42844   Biso      1.000     C          0.575747  
         C58       1.0000    0.49620   0.25720   0.33785   Biso      1.000     C          -0.05006  
         C59       1.0000    0.61670   0.33470   0.36120   Biso      1.000     C          -0.15048  
         C60       1.0000    0.55490   0.40060   0.39181   Biso      1.000     C          -0.044059           
         C61       1.0000    0.36900   0.38790   0.39845   Biso      1.000     C          -0.060644           
         C62       1.0000    0.25060   0.30800   0.37494   Biso      1.000     C          -0.077611           
         C63       1.0000    0.31290   0.24300   0.34457   Biso      1.000     C          -0.10742  
         C64       1.0000    0.78320   0.95270   0.39539   Biso      1.000     C          0.013939  
         C65       1.0000    0.69650   0.48120   0.41649   Biso      1.000     C          0.637997  
         C66       1.0000    0.04750   0.51150   0.31653   Biso      1.000     C          0.099809  
         C67       1.0000    0.10090   0.44990   0.28313   Biso      1.000     C          -0.181608           
         C68       1.0000    0.28180   0.45980   0.27391   Biso      1.000     C          0.111395  
         C69       1.0000    0.39960   0.53430   0.29934   Biso      1.000     C          -0.18389  
         C70       1.0000    0.33630   0.59280   0.33243   Biso      1.000     C          0.093428  
         C71       1.0000    0.34580   0.39310   0.23901   Biso      1.000     C          0.104362  
         C72       1.0000    0.22920   0.31390   0.21526   Biso      1.000     C          -0.185387           
         C73       1.0000    0.29360   0.25700   0.18253   Biso      1.000     C          0.098852  
         C74       1.0000    0.58210   0.34540   0.19493   Biso      1.000     C          0.101558  
         C75       1.0000    0.52710   0.40810   0.22781   Biso      1.000     C          -0.186463           
         C76       1.0000    0.29220   0.46030   0.42897   Biso      1.000     C          0.595805  
         C77       1.0000    0.59810   0.93530   0.38633   Biso      1.000     C          -0.037696           
         C78       1.0000    0.53660   0.00280   0.35661   Biso      1.000     C          -0.13699  
         C79       1.0000    0.65720   0.08470   0.33584   Biso      1.000     C          -0.096298           
         C80       1.0000    0.71680   0.54730   0.89539   Biso      1.000     C          0.013939  
         C81       1.0000    0.59960   0.46470   0.87418   Biso      1.000     C          -0.107472           
         C82       1.0000    0.66020   0.39870   0.84414   Biso      1.000     C          -0.115286           
         C83       1.0000    0.03820   0.65240   0.90885   Biso      1.000     C          0.636749  
         C84       1.0000    0.63670   0.61510   0.92844   Biso      1.000     C          0.575747  
         C85       1.0000    0.00380   0.24280   0.83785   Biso      1.000     C          -0.05006  
         C86       1.0000    0.88330   0.16530   0.86120   Biso      1.000     C          -0.15048  
         C87       1.0000    0.94510   0.09940   0.89181   Biso      1.000     C          -0.044059           
         C88       1.0000    0.13100   0.11210   0.89845   Biso      1.000     C          -0.060644           
         C89       1.0000    0.24940   0.19200   0.87494   Biso      1.000     C          -0.077611           
         C90       1.0000    0.18710   0.25700   0.84457   Biso      1.000     C          -0.10742  
         C91       1.0000    0.80350   0.01880   0.91649   Biso      1.000     C          0.637997  
         C92       1.0000    0.20780   0.03970   0.92897   Biso      1.000     C          0.595805  
         C93       1.0000    0.45250   0.98850   0.81653   Biso      1.000     C          0.099809  
         C94       1.0000    0.39910   0.05010   0.78313   Biso      1.000     C          -0.181608           
         C95       1.0000    0.21820   0.04020   0.77391   Biso      1.000     C          0.111395  
         C96       1.0000    0.10040   0.96570   0.79934   Biso      1.000     C          -0.18389  
         C97       1.0000    0.16370   0.90720   0.83243   Biso      1.000     C          0.093428  
         C98       1.0000    0.15420   0.10690   0.73901   Biso      1.000     C          0.104362  
         C99       1.0000    0.27080   0.18610   0.71526   Biso      1.000     C          -0.185387           
         C100      1.0000    0.20640   0.24300   0.68253   Biso      1.000     C          0.098852  
         C101      1.0000    0.91790   0.15460   0.69493   Biso      1.000     C          0.101558  
         C102      1.0000    0.97290   0.09190   0.72781   Biso      1.000     C          -0.186463           
         C103      1.0000    0.53820   0.15240   0.59115   Biso      1.000     C          0.636749  
         C104      1.0000    0.13670   0.11510   0.57156   Biso      1.000     C          0.575747  
         Cd1       1.0000    0.88670   0.18018   0.00987   Biso      1.000     Cd          1.113236  
         Cd2       1.0000    0.05252   0.68943   0.39496   Biso      1.000     Cd          0.997018  
         Cd3       1.0000    0.55252   0.18943   0.10504   Biso      1.000     Cd          0.997018  
         Cd4       1.0000    0.61330   0.31982   0.50987   Biso      1.000     Cd          1.113236  
         Cd5       1.0000    0.94748   0.31057   0.60504   Biso      1.000     Cd          0.997018  
         Cd6       1.0000    0.11330   0.81982   0.99013   Biso      1.000     Cd          1.113236  
         Cd7       1.0000    0.44748   0.81057   0.89496   Biso      1.000     Cd          0.997018  
         Cd8       1.0000    0.38670   0.68018   0.49013   Biso      1.000     Cd          1.113236  
         Cd9       1.0000    0.50000   0.00000   0.00000   Biso      1.000     Cd          1.107278  
         Cd10      1.0000    0.00000   0.50000   0.50000   Biso      1.000     Cd          1.107278  
         H1        1.0000    0.11170   0.96040   0.25760   Biso      1.000     H          0.130457  
         H2        1.0000    0.57000   0.19400   0.01890   Biso      1.000     H          0.542349  
         H3        1.0000    0.58590   0.00720   0.64930   Biso      1.000     H          0.121439  
         H4        1.0000    0.97700   0.95330   0.61970   Biso      1.000     H          0.119998  
         H5        1.0000    0.07970   0.84410   0.67030   Biso      1.000     H          0.113328  
         H6        1.0000    0.07520   0.49670   0.67820   Biso      1.000     H          0.088669  
         H7        1.0000    0.87270   0.70180   0.62020   Biso      1.000     H          0.118933  
         H8        1.0000    0.76740   0.80960   0.67110   Biso      1.000     H          0.12264   
         H9        1.0000    0.20450   0.85570   0.31120   Biso      1.000     H          0.093623  
         H10       1.0000    0.98490   0.59840   0.73320   Biso      1.000     H          0.133994  
         H11       1.0000    0.26030   0.65710   0.64360   Biso      1.000     H          0.126925  
         H12       1.0000    0.71120   0.70540   0.33310   Biso      1.000     H          0.088232  
         H13       1.0000    0.51510   0.90160   0.23320   Biso      1.000     H          0.133994  
         H14       1.0000    0.91940   0.14190   0.15090   Biso      1.000     H          0.094344  
         H15       1.0000    0.02280   0.04530   0.20590   Biso      1.000     H          0.126862  
         H16       1.0000    0.47720   0.45470   0.70590   Biso      1.000     H          0.126862  
         H17       1.0000    0.42480   0.00330   0.17820   Biso      1.000     H          0.088669  
         H18       1.0000    0.73260   0.69040   0.17110   Biso      1.000     H          0.122641  
         H19       1.0000    0.62730   0.79820   0.12020   Biso      1.000     H          0.118933  
         H20       1.0000    0.23970   0.84290   0.14360   Biso      1.000     H          0.126925  
         H21       1.0000    0.42030   0.65590   0.17030   Biso      1.000     H          0.113328  
         H22       1.0000    0.52300   0.54670   0.11970   Biso      1.000     H          0.119998  
         H23       1.0000    0.91410   0.49280   0.14930   Biso      1.000     H          0.121439  
         H24       1.0000    0.07000   0.69400   0.48110   Biso      1.000     H          0.542349  
         H25       1.0000    0.60660   0.79950   0.27840   Biso      1.000     H          0.129607  
         H26       1.0000    0.58060   0.35810   0.65090   Biso      1.000     H          0.094344  
         H27       1.0000    0.61170   0.46040   0.24240   Biso      1.000     H          0.130457  
         H28       1.0000    0.78880   0.79460   0.83310   Biso      1.000     H          0.088232  
         H29       1.0000    0.70450   0.35570   0.18880   Biso      1.000     H          0.093623  
         H30       1.0000    0.21120   0.20540   0.16690   Biso      1.000     H          0.088232  
         H31       1.0000    0.10660   0.29950   0.22160   Biso      1.000     H          0.129607  
         H32       1.0000    0.41940   0.64190   0.34910   Biso      1.000     H          0.094344  
         H33       1.0000    0.52280   0.54530   0.29410   Biso      1.000     H          0.126862  
         H34       1.0000    0.01510   0.40160   0.26680   Biso      1.000     H          0.133994  
         H35       1.0000    0.92480   0.50330   0.32180   Biso      1.000     H          0.088669  
         H36       1.0000    0.23260   0.19040   0.32890   Biso      1.000     H          0.12264   
         H37       1.0000    0.89340   0.70050   0.77840   Biso      1.000     H          0.129607  
         H38       1.0000    0.12730   0.29820   0.37980   Biso      1.000     H          0.118933  
         H39       1.0000    0.73970   0.34290   0.35640   Biso      1.000     H          0.126925  
         H40       1.0000    0.92030   0.15590   0.32970   Biso      1.000     H          0.113328  
         H41       1.0000    0.02300   0.04670   0.38030   Biso      1.000     H          0.119999  
         H42       1.0000    0.41410   0.99280   0.35070   Biso      1.000     H          0.121439  
         H43       1.0000    0.88830   0.03960   0.74240   Biso      1.000     H          0.130457  
         H44       1.0000    0.43000   0.80600   0.98110   Biso      1.000     H          0.542349  
         H45       1.0000    0.28880   0.29460   0.66690   Biso      1.000     H          0.088232  
         H46       1.0000    0.29550   0.64430   0.81120   Biso      1.000     H          0.093623  
         H47       1.0000    0.38830   0.53960   0.75760   Biso      1.000     H          0.130457  
         H48       1.0000    0.93000   0.30600   0.51890   Biso      1.000     H          0.542349  
         H49       1.0000    0.08590   0.50720   0.85070   Biso      1.000     H          0.121439  
         H50       1.0000    0.47700   0.45330   0.88030   Biso      1.000     H          0.119999  
         H51       1.0000    0.79550   0.14430   0.68880   Biso      1.000     H          0.093623  
         H52       1.0000    0.76030   0.15710   0.85640   Biso      1.000     H          0.126925  
         H53       1.0000    0.57970   0.34410   0.82970   Biso      1.000     H          0.113328  
         H54       1.0000    0.26740   0.30960   0.82890   Biso      1.000     H          0.12264   
         H55       1.0000    0.57520   0.99670   0.82180   Biso      1.000     H          0.088669  
         H56       1.0000    0.48490   0.09840   0.76680   Biso      1.000     H          0.133994  
         H57       1.0000    0.97720   0.95470   0.79410   Biso      1.000     H          0.126862  
         H58       1.0000    0.08060   0.85810   0.84910   Biso      1.000     H          0.094344  
         H59       1.0000    0.39340   0.20050   0.72160   Biso      1.000     H          0.129607  
         H60       1.0000    0.37270   0.20180   0.87980   Biso      1.000     H          0.118933  
         N1        1.0000    0.53230   0.72910   0.82833   Biso      1.000     N          -0.231885           
         N2        1.0000    0.16110   0.58210   0.34171   Biso      1.000     N          -0.24239  
         N3        1.0000    0.03230   0.22910   0.67167   Biso      1.000     N          -0.231885           
         N4        1.0000    0.33890   0.91790   0.84171   Biso      1.000     N          -0.24239  
         N5        1.0000    0.83890   0.41790   0.65829   Biso      1.000     N          -0.24239  
         N6        1.0000    0.46770   0.27090   0.17167   Biso      1.000     N          -0.231885           
         N7        1.0000    0.66110   0.08210   0.15829   Biso      1.000     N          -0.24239  
         N8        1.0000    0.96770   0.77090   0.32833   Biso      1.000     N          -0.231885           
         O1        1.0000    0.12990   0.43100   0.44014   Biso      1.000     O          -0.57181  
         O2        1.0000    0.57590   0.88530   0.72555   Biso      1.000     O          -0.52731  
         O3        1.0000    0.90030   0.34140   0.53164   Biso      1.000     O          -1.052151           
         O4        1.0000    0.17210   0.69310   0.88632   Biso      1.000     O          -0.571832           
         O5        1.0000    0.00320   0.67290   0.94921   Biso      1.000     O          -0.55104  
         O6        1.0000    0.65570   0.70910   0.92081   Biso      1.000     O          -0.62821  
         O7        1.0000    0.55950   0.56730   0.96190   Biso      1.000     O          -0.527433           
         O8        1.0000    0.77660   0.03658   0.95894   Biso      1.000     O          -0.621279           
         O9        1.0000    0.71440   0.94530   0.89359   Biso      1.000     O          -0.507821           
         O10       1.0000    0.10260   0.95560   0.94038   Biso      1.000     O          -0.569211           
         O11       1.0000    0.72990   0.23360   0.27536   Biso      1.000     O          -0.530217           
         O12       1.0000    0.37010   0.06900   0.94014   Biso      1.000     O          -0.57181  
         O13       1.0000    0.07590   0.38530   0.77445   Biso      1.000     O          -0.52731  
         O14       1.0000    0.40030   0.84140   0.96836   Biso      1.000     O          -1.052151           
         O15       1.0000    0.32790   0.80690   0.38632   Biso      1.000     O          -0.571832           
         O16       1.0000    0.49680   0.82710   0.44921   Biso      1.000     O          -0.55104  
         O17       1.0000    0.84430   0.79090   0.42081   Biso      1.000     O          -0.62821  
         O18       1.0000    0.94050   0.93270   0.46190   Biso      1.000     O          -0.527434           
         O19       1.0000    0.72340   0.46342   0.45894   Biso      1.000     O          -0.621279           
         O20       1.0000    0.78560   0.55470   0.39359   Biso      1.000     O          -0.507821           
         O21       1.0000    0.39740   0.54440   0.44038   Biso      1.000     O          -0.569211           
         O22       1.0000    0.27010   0.76640   0.72464   Biso      1.000     O          -0.530217           
         O23       1.0000    0.77010   0.26640   0.77536   Biso      1.000     O          -0.530217           
         O24       1.0000    0.87010   0.56900   0.55986   Biso      1.000     O          -0.57181  
         O25       1.0000    0.21440   0.44530   0.60641   Biso      1.000     O          -0.507821           
         O26       1.0000    0.42410   0.11470   0.27445   Biso      1.000     O          -0.52731  
         O27       1.0000    0.82790   0.30690   0.11368   Biso      1.000     O          -0.571832           
         O28       1.0000    0.99680   0.32710   0.05079   Biso      1.000     O          -0.55104  
         O29       1.0000    0.34430   0.29090   0.07919   Biso      1.000     O          -0.62821  
         O30       1.0000    0.44050   0.43270   0.03810   Biso      1.000     O          -0.527434           
         O31       1.0000    0.22340   0.96342   0.04106   Biso      1.000     O          -0.621279           
         O32       1.0000    0.60260   0.45560   0.55962   Biso      1.000     O          -0.569211           
         O33       1.0000    0.89740   0.04440   0.05962   Biso      1.000     O          -0.569211           
         O34       1.0000    0.28560   0.05470   0.10641   Biso      1.000     O          -0.507821           
         O35       1.0000    0.22990   0.73360   0.22464   Biso      1.000     O          -0.530217           
         O36       1.0000    0.92410   0.61470   0.22555   Biso      1.000     O          -0.52731  
         O37       1.0000    0.59970   0.15860   0.03164   Biso      1.000     O          -1.052151           
         O38       1.0000    0.67210   0.19310   0.61368   Biso      1.000     O          -0.571832           
         O39       1.0000    0.50320   0.17290   0.55079   Biso      1.000     O          -0.55104  
         O40       1.0000    0.15570   0.20910   0.57919   Biso      1.000     O          -0.62821  
         O41       1.0000    0.05950   0.06730   0.53810   Biso      1.000     O          -0.527434           
         O42       1.0000    0.27660   0.53658   0.54106   Biso      1.000     O          -0.621279           
         O43       1.0000    0.62990   0.93100   0.05986   Biso      1.000     O          -0.57181  
         O44       1.0000    0.09970   0.65860   0.46836   Biso      1.000     O          -1.052151           
         S1        1.0000    0.07698   0.67277   0.20047   Biso      1.000     S          0.969024  
         S2        1.0000    0.42302   0.82723   0.70047   Biso      1.000     S          0.969024  
         S3        1.0000    0.92302   0.32723   0.79953   Biso      1.000     S          0.969024  
         S4        1.0000    0.57698   0.17277   0.29953   Biso      1.000     S          0.969024 