
##########################################################################
#               Crystallographic Information Format file
#               Produced by PyCifRW module
#
#  This is a CIF file.  CIF has been adopted by the International
#  Union of Crystallography as the standard for data archiving and
#  transmission.
#
#  For information on this file format, follow the CIF links at
#  http://www.iucr.org
##########################################################################

data_image0

_cell_length_a                          7.1209
_cell_length_b                          18.3023
_cell_length_c                          24.9833
_cell_angle_alpha                       90
_cell_angle_beta                        90
_cell_angle_gamma                       99.606
_symmetry_space_group_name_H-M          'P 1'
_symmetry_int_tables_number             1
loop_
  _symmetry_equiv_pos_as_xyz
         'x, y, z' 
loop_
  _atom_site_label
  _atom_site_occupancy
  _atom_site_fract_x
  _atom_site_fract_y
  _atom_site_fract_z
  _atom_site_thermal_displace_type
  _atom_site_B_iso_or_equiv
  _atom_site_type_symbol
  _atom_site_charge
         C1        1.0000    0.64540   0.59840   0.02860   Biso      1.000     C          0.649619  
         C2        1.0000    0.67810   0.73290   0.00080   Biso      1.000     C          -0.146631           
         C3        1.0000    0.64860   0.67910   0.04040   Biso      1.000     C          -0.004898           
         C4        1.0000    0.62140   0.70280   0.09250   Biso      1.000     C          -0.146726           
         C5        1.0000    0.62540   0.77820   0.10150   Biso      1.000     C          0.086807  
         C6        1.0000    0.48030   0.15150   0.15590   Biso      1.000     C          0.081791  
         C7        1.0000    0.40630   0.21410   0.14640   Biso      1.000     C          -0.147266           
         C8        1.0000    0.52110   0.28220   0.14920   Biso      1.000     C          0.02891   
         C9        1.0000    0.67620   0.80470   0.01350   Biso      1.000     C          0.069799  
         C10       1.0000    0.71200   0.28120   0.15840   Biso      1.000     C          -0.152689           
         C11       1.0000    0.44670   0.35300   0.13780   Biso      1.000     C          0.573379  
         C12       1.0000    0.89020   0.17450   0.57750   Biso      1.000     C          0.077175  
         C13       1.0000    0.87720   0.24620   0.59160   Biso      1.000     C          -0.128558           
         C14       1.0000    0.84590   0.29650   0.55260   Biso      1.000     C          0.01816   
         C15       1.0000    0.82560   0.27180   0.50030   Biso      1.000     C          -0.148459           
         C16       1.0000    0.84080   0.19850   0.48970   Biso      1.000     C          0.068715  
         C17       1.0000    0.82890   0.37520   0.56660   Biso      1.000     C          0.570103  
         C18       1.0000    0.77600   0.21570   0.16710   Biso      1.000     C          0.077697  
         C19       1.0000    0.82890   0.37520   0.93340   Biso      1.000     C          0.570105  
         C20       1.0000    0.84080   0.19850   0.01030   Biso      1.000     C          0.068716  
         C21       1.0000    0.82560   0.27180   0.99970   Biso      1.000     C          -0.148461           
         C22       1.0000    0.17440   0.72820   0.49970   Biso      1.000     C          -0.148462           
         C23       1.0000    0.17110   0.62480   0.43340   Biso      1.000     C          0.570105  
         C24       1.0000    0.32380   0.19530   0.51350   Biso      1.000     C          0.069785  
         C25       1.0000    0.32190   0.26710   0.50080   Biso      1.000     C          -0.146615           
         C26       1.0000    0.35140   0.32090   0.54040   Biso      1.000     C          -0.004904           
         C27       1.0000    0.37860   0.29720   0.59250   Biso      1.000     C          -0.146719           
         C28       1.0000    0.37460   0.22180   0.60150   Biso      1.000     C          0.086813  
         C29       1.0000    0.35460   0.40160   0.52860   Biso      1.000     C          0.649621  
         C30       1.0000    0.51970   0.84850   0.65590   Biso      1.000     C          0.081798  
         C31       1.0000    0.59370   0.78590   0.64640   Biso      1.000     C          -0.147265           
         C32       1.0000    0.47890   0.71780   0.64920   Biso      1.000     C          0.028915  
         C33       1.0000    0.28800   0.71880   0.65840   Biso      1.000     C          -0.152687           
         C34       1.0000    0.22400   0.78430   0.66710   Biso      1.000     C          0.077702  
         C35       1.0000    0.55330   0.64700   0.63780   Biso      1.000     C          0.573386  
         C36       1.0000    0.89020   0.17450   0.92250   Biso      1.000     C          0.077174  
         C37       1.0000    0.87720   0.24620   0.90840   Biso      1.000     C          -0.128562           
         C38       1.0000    0.84590   0.29650   0.94740   Biso      1.000     C          0.018166  
         C39       1.0000    0.67620   0.80470   0.48650   Biso      1.000     C          0.069785  
         C40       1.0000    0.67810   0.73290   0.49920   Biso      1.000     C          -0.146615           
         C41       1.0000    0.64860   0.67910   0.45960   Biso      1.000     C          -0.004903           
         C42       1.0000    0.62140   0.70280   0.40750   Biso      1.000     C          -0.146722           
         C43       1.0000    0.59370   0.78590   0.85360   Biso      1.000     C          -0.147282           
         C44       1.0000    0.47890   0.71780   0.85080   Biso      1.000     C          0.02891   
         C45       1.0000    0.28800   0.71880   0.84160   Biso      1.000     C          -0.152692           
         C46       1.0000    0.22400   0.78430   0.83290   Biso      1.000     C          0.077697  
         C47       1.0000    0.55330   0.64700   0.86220   Biso      1.000     C          0.573378  
         C48       1.0000    0.24900   0.22580   0.75000   Biso      1.000     C          0.057445  
         C49       1.0000    0.16700   0.29040   0.75000   Biso      1.000     C          -0.153442           
         C50       1.0000    0.97000   0.28540   0.75000   Biso      1.000     C          0.042121  
         C51       1.0000    0.86300   0.21470   0.75000   Biso      1.000     C          -0.169454           
         C52       1.0000    0.95800   0.15460   0.75000   Biso      1.000     C          0.054176  
         C53       1.0000    0.87000   0.35400   0.75000   Biso      1.000     C          0.566881  
         C54       1.0000    0.75100   0.77420   0.25000   Biso      1.000     C          0.057449  
         C55       1.0000    0.83300   0.70960   0.25000   Biso      1.000     C          -0.153441           
         C56       1.0000    0.03000   0.71460   0.25000   Biso      1.000     C          0.042127  
         C57       1.0000    0.13700   0.78530   0.25000   Biso      1.000     C          -0.169451           
         C58       1.0000    0.04200   0.84540   0.25000   Biso      1.000     C          0.054184  
         C59       1.0000    0.13000   0.64600   0.25000   Biso      1.000     C          0.566885  
         C60       1.0000    0.51970   0.84850   0.84410   Biso      1.000     C          0.081805  
         C61       1.0000    0.15410   0.70350   0.44740   Biso      1.000     C          0.018163  
         C62       1.0000    0.35460   0.40160   0.97140   Biso      1.000     C          0.649621  
         C63       1.0000    0.37860   0.29720   0.90750   Biso      1.000     C          -0.146723           
         C64       1.0000    0.62540   0.77820   0.39850   Biso      1.000     C          0.086811  
         C65       1.0000    0.64540   0.59840   0.47140   Biso      1.000     C          0.64962   
         C66       1.0000    0.48030   0.15150   0.34410   Biso      1.000     C          0.081797  
         C67       1.0000    0.40630   0.21410   0.35360   Biso      1.000     C          -0.147265           
         C68       1.0000    0.52110   0.28220   0.35080   Biso      1.000     C          0.028914  
         C69       1.0000    0.71200   0.28120   0.34160   Biso      1.000     C          -0.152687           
         C70       1.0000    0.77600   0.21570   0.33290   Biso      1.000     C          0.077702  
         C71       1.0000    0.44670   0.35300   0.36220   Biso      1.000     C          0.573382  
         C72       1.0000    0.10980   0.82550   0.07750   Biso      1.000     C          0.077175  
         C73       1.0000    0.12280   0.75380   0.09160   Biso      1.000     C          -0.128564           
         C74       1.0000    0.15410   0.70350   0.05260   Biso      1.000     C          0.018162  
         C75       1.0000    0.17440   0.72820   0.00030   Biso      1.000     C          -0.148457           
         C76       1.0000    0.15920   0.80150   0.98970   Biso      1.000     C          0.068716  
         C77       1.0000    0.17110   0.62480   0.06660   Biso      1.000     C          0.570109  
         C78       1.0000    0.32380   0.19530   0.98650   Biso      1.000     C          0.069784  
         C79       1.0000    0.32190   0.26710   0.99920   Biso      1.000     C          -0.146618           
         C80       1.0000    0.35140   0.32090   0.95960   Biso      1.000     C          -0.0049   
         C81       1.0000    0.37460   0.22180   0.89850   Biso      1.000     C          0.086809  
         C82       1.0000    0.12280   0.75380   0.40840   Biso      1.000     C          -0.128565           
         C83       1.0000    0.15920   0.80150   0.51030   Biso      1.000     C          0.068715  
         C84       1.0000    0.10980   0.82550   0.42250   Biso      1.000     C          0.07718   
         Cu1       1.0000    0.24790   0.94631   0.81702   Biso      1.000     Cu          0.168957  
         Cu2       1.0000    0.73180   0.93469   0.25000   Biso      1.000     Cu          0.132396  
         Cu3       1.0000    0.26820   0.06531   0.75000   Biso      1.000     Cu          0.132406  
         Cu4       1.0000    0.32650   0.06086   0.91992   Biso      1.000     Cu          0.197328  
         Cu5       1.0000    0.87800   0.04412   0.99242   Biso      1.000     Cu          0.169532  
         Cu6       1.0000    0.67350   0.93914   0.41992   Biso      1.000     Cu          0.197317  
         Cu7       1.0000    0.75210   0.05369   0.31702   Biso      1.000     Cu          0.168946  
         Cu8       1.0000    0.75210   0.05369   0.18298   Biso      1.000     Cu          0.168955  
         Cu9       1.0000    0.67350   0.93914   0.08008   Biso      1.000     Cu          0.19733   
         Cu10      1.0000    0.12200   0.95588   0.00758   Biso      1.000     Cu          0.169526  
         Cu11      1.0000    0.24790   0.94631   0.68298   Biso      1.000     Cu          0.16895   
         Cu12      1.0000    0.32650   0.06086   0.58008   Biso      1.000     Cu          0.197324  
         Cu13      1.0000    0.87800   0.04412   0.50758   Biso      1.000     Cu          0.16952   
         Cu14      1.0000    0.12200   0.95588   0.49242   Biso      1.000     Cu          0.169517  
         H1        1.0000    0.11680   0.56370   0.95940   Biso      1.000     H          0.501609  
         H2        1.0000    0.11600   0.55820   0.89750   Biso      1.000     H          0.483785  
         H3        1.0000    0.91240   0.14170   0.89570   Biso      1.000     H          0.092753  
         H4        1.0000    0.88940   0.26080   0.87270   Biso      1.000     H          0.13871   
         H5        1.0000    0.11530   0.89240   0.25000   Biso      1.000     H          0.073634  
         H6        1.0000    0.82820   0.18220   0.04560   Biso      1.000     H          0.085864  
         H7        1.0000    0.69920   0.71970   0.96570   Biso      1.000     H          0.125631  
         H8        1.0000    0.60100   0.66900   0.12060   Biso      1.000     H          0.136228  
         H9        1.0000    0.09480   0.78280   0.67390   Biso      1.000     H          0.087433  
         H10       1.0000    0.80230   0.30350   0.02710   Biso      1.000     H          0.125479  
         H11       1.0000    0.20250   0.67450   0.65880   Biso      1.000     H          0.124417  
         H12       1.0000    0.19770   0.69650   0.52710   Biso      1.000     H          0.125479  
         H13       1.0000    0.60200   0.89370   0.65520   Biso      1.000     H          0.084084  
         H14       1.0000    0.39260   0.20640   0.63630   Biso      1.000     H          0.091083  
         H15       1.0000    0.39900   0.33100   0.62060   Biso      1.000     H          0.136233  
         H16       1.0000    0.30080   0.28030   0.46570   Biso      1.000     H          0.125627  
         H17       1.0000    0.30830   0.16080   0.48580   Biso      1.000     H          0.083871  
         H18       1.0000    0.17180   0.81780   0.54560   Biso      1.000     H          0.085866  
         H19       1.0000    0.60740   0.79360   0.13630   Biso      1.000     H          0.091076  
         H20       1.0000    0.11060   0.73920   0.37270   Biso      1.000     H          0.138709  
         H21       1.0000    0.08760   0.85830   0.39570   Biso      1.000     H          0.092754  
         H22       1.0000    0.88400   0.44180   0.39750   Biso      1.000     H          0.483788  
         H23       1.0000    0.88320   0.43630   0.45940   Biso      1.000     H          0.501613  
         H24       1.0000    0.72210   0.78920   0.63810   Biso      1.000     H          0.124491  
         H25       1.0000    0.39800   0.10630   0.15520   Biso      1.000     H          0.084082  
         H26       1.0000    0.69170   0.83920   0.98580   Biso      1.000     H          0.08387   
         H27       1.0000    0.79750   0.32550   0.15880   Biso      1.000     H          0.124411  
         H28       1.0000    0.17180   0.81780   0.95440   Biso      1.000     H          0.085866  
         H29       1.0000    0.30830   0.16080   0.01420   Biso      1.000     H          0.08387   
         H30       1.0000    0.27790   0.21080   0.13810   Biso      1.000     H          0.12449   
         H31       1.0000    0.39900   0.33100   0.87940   Biso      1.000     H          0.136232  
         H32       1.0000    0.39260   0.20640   0.86370   Biso      1.000     H          0.09108   
         H33       1.0000    0.60200   0.89370   0.84480   Biso      1.000     H          0.084081  
         H34       1.0000    0.72210   0.78920   0.86190   Biso      1.000     H          0.12449   
         H35       1.0000    0.19770   0.69650   0.97290   Biso      1.000     H          0.125481  
         H36       1.0000    0.20250   0.67450   0.84120   Biso      1.000     H          0.124412  
         H37       1.0000    0.38140   0.23030   0.75000   Biso      1.000     H          0.092023  
         H38       1.0000    0.24500   0.33670   0.75000   Biso      1.000     H          0.138578  
         H39       1.0000    0.73070   0.20790   0.75000   Biso      1.000     H          0.119181  
         H40       1.0000    0.88470   0.10760   0.75000   Biso      1.000     H          0.073629  
         H41       1.0000    0.61860   0.76970   0.25000   Biso      1.000     H          0.092027  
         H42       1.0000    0.75500   0.66330   0.25000   Biso      1.000     H          0.138585  
         H43       1.0000    0.26930   0.79210   0.25000   Biso      1.000     H          0.119185  
         H44       1.0000    0.09480   0.78280   0.82610   Biso      1.000     H          0.087428  
         H45       1.0000    0.11060   0.73920   0.12730   Biso      1.000     H          0.138706  
         H46       1.0000    0.30080   0.28030   0.03430   Biso      1.000     H          0.125628  
         H47       1.0000    0.88400   0.44180   0.10250   Biso      1.000     H          0.483783  
         H48       1.0000    0.90520   0.21720   0.17390   Biso      1.000     H          0.087428  
         H49       1.0000    0.11680   0.56370   0.54060   Biso      1.000     H          0.501614  
         H50       1.0000    0.11600   0.55820   0.60250   Biso      1.000     H          0.483793  
         H51       1.0000    0.08760   0.85830   0.10430   Biso      1.000     H          0.092751  
         H52       1.0000    0.88940   0.26080   0.62730   Biso      1.000     H          0.138712  
         H53       1.0000    0.80230   0.30350   0.47290   Biso      1.000     H          0.125477  
         H54       1.0000    0.82820   0.18220   0.45440   Biso      1.000     H          0.085864  
         H55       1.0000    0.69170   0.83920   0.51420   Biso      1.000     H          0.083872  
         H56       1.0000    0.91240   0.14170   0.60430   Biso      1.000     H          0.092756  
         H57       1.0000    0.60100   0.66900   0.37940   Biso      1.000     H          0.13623   
         H58       1.0000    0.60740   0.79360   0.36370   Biso      1.000     H          0.09108   
         H59       1.0000    0.39800   0.10630   0.34480   Biso      1.000     H          0.084083  
         H60       1.0000    0.27790   0.21080   0.36190   Biso      1.000     H          0.12449   
         H61       1.0000    0.79750   0.32550   0.34120   Biso      1.000     H          0.124413  
         H62       1.0000    0.90520   0.21720   0.32610   Biso      1.000     H          0.087432  
         H63       1.0000    0.88320   0.43630   0.04060   Biso      1.000     H          0.501611  
         H64       1.0000    0.69920   0.71970   0.53430   Biso      1.000     H          0.125629  
         I1        1.0000    0.48300   0.94315   0.32979   Biso      1.000     I          -0.255661           
         I2        1.0000    0.00938   0.02950   0.41083   Biso      1.000     I          -0.275044           
         I3        1.0000    0.48300   0.94315   0.17021   Biso      1.000     I          -0.255664           
         I4        1.0000    0.00938   0.02950   0.08917   Biso      1.000     I          -0.275056           
         I5        1.0000    0.51700   0.05685   0.67021   Biso      1.000     I          -0.255661           
         I6        1.0000    0.02562   0.05863   0.25000   Biso      1.000     I          -0.254845           
         I7        1.0000    0.50000   0.00000   0.00000   Biso      1.000     I          -0.3268   
         I8        1.0000    0.50000   0.00000   0.50000   Biso      1.000     I          -0.326791           
         I9        1.0000    0.99062   0.97050   0.91083   Biso      1.000     I          -0.275053           
         I10       1.0000    0.97438   0.94137   0.75000   Biso      1.000     I          -0.254851           
         I11       1.0000    0.99062   0.97050   0.58917   Biso      1.000     I          -0.275046           
         I12       1.0000    0.51700   0.05685   0.82979   Biso      1.000     I          -0.255661           
         La1       1.0000    0.27768   0.48356   0.40106   Biso      1.000     La          1.946685  
         La2       1.0000    0.27768   0.48356   0.09894   Biso      1.000     La          1.946653  
         La3       1.0000    0.72232   0.51644   0.59894   Biso      1.000     La          1.946702  
         La4       1.0000    0.72232   0.51644   0.90106   Biso      1.000     La          1.946648  
         N1        1.0000    0.85440   0.84120   0.25000   Biso      1.000     N          -0.168755           
         N2        1.0000    0.33560   0.84900   0.83370   Biso      1.000     N          -0.153348           
         N3        1.0000    0.34660   0.17020   0.93670   Biso      1.000     N          -0.164669           
         N4        1.0000    0.12770   0.84990   0.02720   Biso      1.000     N          -0.154119           
         N5        1.0000    0.66440   0.15100   0.33370   Biso      1.000     N          -0.153337           
         N6        1.0000    0.65340   0.82980   0.43670   Biso      1.000     N          -0.164661           
         N7        1.0000    0.14560   0.15880   0.75000   Biso      1.000     N          -0.168765           
         N8        1.0000    0.66440   0.15100   0.16630   Biso      1.000     N          -0.153342           
         N9        1.0000    0.65340   0.82980   0.06330   Biso      1.000     N          -0.164669           
         N10       1.0000    0.87230   0.15010   0.97280   Biso      1.000     N          -0.154121           
         N11       1.0000    0.33560   0.84900   0.66630   Biso      1.000     N          -0.153339           
         N12       1.0000    0.34660   0.17020   0.56330   Biso      1.000     N          -0.164666           
         N13       1.0000    0.12770   0.84990   0.47280   Biso      1.000     N          -0.154114           
         N14       1.0000    0.87230   0.15010   0.52720   Biso      1.000     N          -0.154116           
         O1        1.0000    0.58130   0.55120   0.43580   Biso      1.000     O          -0.630583           
         O2        1.0000    0.26760   0.34900   0.36390   Biso      1.000     O          -0.64126  
         O3        1.0000    0.56070   0.41250   0.36930   Biso      1.000     O          -0.611644           
         O4        1.0000    0.06650   0.55870   0.57150   Biso      1.000     O          -0.92885  
         O5        1.0000    0.16480   0.60740   0.11520   Biso      1.000     O          -0.584913           
         O6        1.0000    0.20000   0.58080   0.03000   Biso      1.000     O          -0.615341           
         O7        1.0000    0.43930   0.58750   0.86930   Biso      1.000     O          -0.611636           
         O8        1.0000    0.41870   0.44880   0.93580   Biso      1.000     O          -0.630586           
         O9        1.0000    0.73240   0.65100   0.86390   Biso      1.000     O          -0.641264           
         O10       1.0000    0.93350   0.44130   0.07150   Biso      1.000     O          -0.92885  
         O11       1.0000    0.97590   0.41560   0.75000   Biso      1.000     O          -0.678279           
         O12       1.0000    0.69290   0.34220   0.75000   Biso      1.000     O          -0.643709           
         O13       1.0000    0.70940   0.58340   0.51660   Biso      1.000     O          -0.620017           
         O14       1.0000    0.29060   0.41660   0.01660   Biso      1.000     O          -0.620019           
         O15       1.0000    0.80000   0.41920   0.53000   Biso      1.000     O          -0.61535  
         O16       1.0000    0.83520   0.39260   0.88480   Biso      1.000     O          -0.584905           
         O17       1.0000    0.06650   0.55870   0.92850   Biso      1.000     O          -0.928851           
         O18       1.0000    0.56070   0.41250   0.13070   Biso      1.000     O          -0.611637           
         O19       1.0000    0.26760   0.34900   0.13610   Biso      1.000     O          -0.641263           
         O20       1.0000    0.58130   0.55120   0.06420   Biso      1.000     O          -0.630589           
         O21       1.0000    0.70940   0.58340   0.98340   Biso      1.000     O          -0.620017           
         O22       1.0000    0.80000   0.41920   0.97000   Biso      1.000     O          -0.615347           
         O23       1.0000    0.02410   0.58440   0.25000   Biso      1.000     O          -0.67826  
         O24       1.0000    0.93350   0.44130   0.42850   Biso      1.000     O          -0.928847           
         O25       1.0000    0.43930   0.58750   0.63070   Biso      1.000     O          -0.61165  
         O26       1.0000    0.73240   0.65100   0.63610   Biso      1.000     O          -0.641263           
         O27       1.0000    0.41870   0.44880   0.56420   Biso      1.000     O          -0.630582           
         O28       1.0000    0.29060   0.41660   0.48340   Biso      1.000     O          -0.620018           
         O29       1.0000    0.20000   0.58080   0.47000   Biso      1.000     O          -0.615345           
         O30       1.0000    0.16480   0.60740   0.38480   Biso      1.000     O          -0.584905           
         O31       1.0000    0.83520   0.39260   0.61520   Biso      1.000     O          -0.584898           
         O32       1.0000    0.30710   0.65780   0.25000   Biso      1.000     O          -0.643696 