
##########################################################################
#               Crystallographic Information Format file
#               Produced by PyCifRW module
#
#  This is a CIF file.  CIF has been adopted by the International
#  Union of Crystallography as the standard for data archiving and
#  transmission.
#
#  For information on this file format, follow the CIF links at
#  http://www.iucr.org
##########################################################################

data_image0

_cell_length_a                          7.0614
_cell_length_b                          18.208
_cell_length_c                          24.729
_cell_angle_alpha                       90
_cell_angle_beta                        90
_cell_angle_gamma                       100.32
_symmetry_space_group_name_H-M          'P 1'
_symmetry_int_tables_number             1
loop_
  _symmetry_equiv_pos_as_xyz
         'x, y, z' 
loop_
  _atom_site_label
  _atom_site_occupancy
  _atom_site_fract_x
  _atom_site_fract_y
  _atom_site_fract_z
  _atom_site_thermal_displace_type
  _atom_site_B_iso_or_equiv
  _atom_site_type_symbol
  _atom_site_charge
         C1        1.0000    0.14600   0.17970   0.95950   Biso      1.000     C          -0.010028           
         C2        1.0000    0.66170   0.30200   0.01190   Biso      1.000     C          0.066778  
         C3        1.0000    0.67560   0.22980   0.00060   Biso      1.000     C          -0.147544           
         C4        1.0000    0.14590   0.09790   0.97210   Biso      1.000     C          0.671783  
         C5        1.0000    0.11790   0.20370   0.90700   Biso      1.000     C          -0.146071           
         C6        1.0000    0.12280   0.27800   0.89780   Biso      1.000     C          0.08575   
         C7        1.0000    0.17340   0.30650   0.98770   Biso      1.000     C          0.075891  
         C8        1.0000    0.17340   0.23280   0.00000   Biso      1.000     C          -0.144453           
         C9        1.0000    0.94990   0.85460   0.64080   Biso      1.000     C          0.579135  
         C10       1.0000    0.02730   0.78370   0.65030   Biso      1.000     C          0.027667  
         C11       1.0000    0.90670   0.71560   0.64640   Biso      1.000     C          -0.149454           
         C12       1.0000    0.97900   0.65030   0.65470   Biso      1.000     C          0.079199  
         C13       1.0000    0.27890   0.71720   0.67170   Biso      1.000     C          0.06861   
         C14       1.0000    0.21780   0.78430   0.66280   Biso      1.000     C          -0.149077           
         C15       1.0000    0.67110   0.12570   0.56780   Biso      1.000     C          0.567085  
         C16       1.0000    0.65270   0.20420   0.55250   Biso      1.000     C          0.025804  
         C17       1.0000    0.60360   0.32530   0.92260   Biso      1.000     C          0.07949   
         C18       1.0000    0.61780   0.25340   0.90800   Biso      1.000     C          -0.130998           
         C19       1.0000    0.65270   0.20420   0.94750   Biso      1.000     C          0.025808  
         C20       1.0000    0.67110   0.12570   0.93220   Biso      1.000     C          0.567083  
         C21       1.0000    0.34730   0.79580   0.44750   Biso      1.000     C          0.025797  
         C22       1.0000    0.39640   0.67470   0.42260   Biso      1.000     C          0.07949   
         C23       1.0000    0.33830   0.69800   0.51190   Biso      1.000     C          0.066781  
         C24       1.0000    0.32440   0.77020   0.50060   Biso      1.000     C          -0.14754  
         C25       1.0000    0.85410   0.90210   0.47210   Biso      1.000     C          0.671781  
         C26       1.0000    0.85400   0.82030   0.45950   Biso      1.000     C          -0.010032           
         C27       1.0000    0.88210   0.79630   0.40700   Biso      1.000     C          -0.146073           
         C28       1.0000    0.61780   0.25340   0.59200   Biso      1.000     C          -0.130997           
         C29       1.0000    0.87720   0.72200   0.39780   Biso      1.000     C          0.085746  
         C30       1.0000    0.82660   0.76720   0.50000   Biso      1.000     C          -0.144452           
         C31       1.0000    0.94990   0.85460   0.85920   Biso      1.000     C          0.579122  
         C32       1.0000    0.02730   0.78370   0.84970   Biso      1.000     C          0.027662  
         C33       1.0000    0.90670   0.71560   0.85360   Biso      1.000     C          -0.149459           
         C34       1.0000    0.97900   0.65030   0.84530   Biso      1.000     C          0.079192  
         C35       1.0000    0.27890   0.71720   0.82830   Biso      1.000     C          0.068605  
         C36       1.0000    0.21780   0.78430   0.83720   Biso      1.000     C          -0.149082           
         C37       1.0000    0.82660   0.69350   0.48770   Biso      1.000     C          0.075895  
         C38       1.0000    0.60360   0.32530   0.57740   Biso      1.000     C          0.079495  
         C39       1.0000    0.66170   0.30200   0.48810   Biso      1.000     C          0.06678   
         C40       1.0000    0.67560   0.22980   0.49940   Biso      1.000     C          -0.147542           
         C41       1.0000    0.88210   0.79630   0.09300   Biso      1.000     C          -0.146074           
         C42       1.0000    0.87720   0.72200   0.10220   Biso      1.000     C          0.085748  
         C43       1.0000    0.82660   0.69350   0.01230   Biso      1.000     C          0.075895  
         C44       1.0000    0.82660   0.76720   0.00000   Biso      1.000     C          -0.144454           
         C45       1.0000    0.37360   0.85110   0.25000   Biso      1.000     C          0.55838   
         C46       1.0000    0.47420   0.78400   0.25000   Biso      1.000     C          0.046951  
         C47       1.0000    0.36750   0.71280   0.25000   Biso      1.000     C          -0.172338           
         C48       1.0000    0.85400   0.82030   0.04050   Biso      1.000     C          -0.010023           
         C49       1.0000    0.45850   0.65160   0.25000   Biso      1.000     C          0.052299  
         C50       1.0000    0.67120   0.79060   0.25000   Biso      1.000     C          -0.149108           
         C51       1.0000    0.62640   0.14890   0.75000   Biso      1.000     C          0.55838   
         C52       1.0000    0.52580   0.21600   0.75000   Biso      1.000     C          0.046965  
         C53       1.0000    0.63250   0.28720   0.75000   Biso      1.000     C          -0.172335           
         C54       1.0000    0.54150   0.34840   0.75000   Biso      1.000     C          0.052292  
         C55       1.0000    0.24730   0.27340   0.75000   Biso      1.000     C          0.062327  
         C56       1.0000    0.32880   0.20940   0.75000   Biso      1.000     C          -0.149104           
         C57       1.0000    0.75270   0.72660   0.25000   Biso      1.000     C          0.062322  
         C58       1.0000    0.32890   0.87430   0.43220   Biso      1.000     C          0.56708   
         C59       1.0000    0.85410   0.90210   0.02790   Biso      1.000     C          0.671781  
         C60       1.0000    0.33830   0.69800   0.98810   Biso      1.000     C          0.066783  
         C61       1.0000    0.14590   0.09790   0.52790   Biso      1.000     C          0.671785  
         C62       1.0000    0.14600   0.17970   0.54050   Biso      1.000     C          -0.010032           
         C63       1.0000    0.11790   0.20370   0.59300   Biso      1.000     C          -0.14607  
         C64       1.0000    0.12280   0.27800   0.60220   Biso      1.000     C          0.085749  
         C65       1.0000    0.17340   0.30650   0.51230   Biso      1.000     C          0.075891  
         C66       1.0000    0.17340   0.23280   0.50000   Biso      1.000     C          -0.144453           
         C67       1.0000    0.05010   0.14540   0.14080   Biso      1.000     C          0.579127  
         C68       1.0000    0.32440   0.77020   0.99940   Biso      1.000     C          -0.14754  
         C69       1.0000    0.97270   0.21630   0.15030   Biso      1.000     C          0.027664  
         C70       1.0000    0.02100   0.34970   0.15470   Biso      1.000     C          0.079196  
         C71       1.0000    0.72110   0.28280   0.17170   Biso      1.000     C          0.068607  
         C72       1.0000    0.78220   0.21570   0.16280   Biso      1.000     C          -0.149081           
         C73       1.0000    0.32890   0.87430   0.06780   Biso      1.000     C          0.567082  
         C74       1.0000    0.34730   0.79580   0.05250   Biso      1.000     C          0.025804  
         C75       1.0000    0.38220   0.74660   0.09200   Biso      1.000     C          -0.131    
         C76       1.0000    0.39640   0.67470   0.07740   Biso      1.000     C          0.079494  
         C77       1.0000    0.09330   0.28440   0.14640   Biso      1.000     C          -0.149458           
         C78       1.0000    0.78220   0.21570   0.33720   Biso      1.000     C          -0.149081           
         C79       1.0000    0.38220   0.74660   0.40800   Biso      1.000     C          -0.130997           
         C80       1.0000    0.02100   0.34970   0.34530   Biso      1.000     C          0.0792    
         C81       1.0000    0.09330   0.28440   0.35360   Biso      1.000     C          -0.149458           
         C82       1.0000    0.97270   0.21630   0.34970   Biso      1.000     C          0.02767   
         C83       1.0000    0.72110   0.28280   0.32830   Biso      1.000     C          0.068608  
         C84       1.0000    0.05010   0.14540   0.35920   Biso      1.000     C          0.579133  
         Cu1       1.0000    0.22844   0.43586   0.75000   Biso      1.000     Cu          0.126848  
         Cu2       1.0000    0.77156   0.56414   0.25000   Biso      1.000     Cu          0.126846  
         Cu3       1.0000    0.82827   0.56012   0.08035   Biso      1.000     Cu          0.191163  
         Cu4       1.0000    0.37881   0.54320   0.00726   Biso      1.000     Cu          0.166688  
         Cu5       1.0000    0.17173   0.43988   0.58035   Biso      1.000     Cu          0.19116   
         Cu6       1.0000    0.62119   0.45680   0.50726   Biso      1.000     Cu          0.166682  
         Cu7       1.0000    0.75000   0.44599   0.18430   Biso      1.000     Cu          0.166221  
         Cu8       1.0000    0.17173   0.43988   0.91965   Biso      1.000     Cu          0.191165  
         Cu9       1.0000    0.62119   0.45680   0.99274   Biso      1.000     Cu          0.16669   
         Cu10      1.0000    0.25000   0.55401   0.81570   Biso      1.000     Cu          0.166219  
         Cu11      1.0000    0.82827   0.56012   0.41965   Biso      1.000     Cu          0.19116   
         Cu12      1.0000    0.37881   0.54320   0.49274   Biso      1.000     Cu          0.166679  
         Cu13      1.0000    0.75000   0.44599   0.31570   Biso      1.000     Cu          0.166221  
         Cu14      1.0000    0.25000   0.55401   0.68430   Biso      1.000     Cu          0.166219  
         H1        1.0000    0.80810   0.78120   0.53550   Biso      1.000     H          0.121362  
         H2        1.0000    0.70020   0.19790   0.02810   Biso      1.000     H          0.125795  
         H3        1.0000    0.57830   0.35810   0.89580   Biso      1.000     H          0.091462  
         H4        1.0000    0.60400   0.23830   0.87210   Biso      1.000     H          0.140785  
         H5        1.0000    0.30420   0.82920   0.83490   Biso      1.000     H          0.133942  
         H6        1.0000    0.40710   0.71860   0.81900   Biso      1.000     H          0.089629  
         H7        1.0000    0.89630   0.60470   0.84890   Biso      1.000     H          0.086985  
         H8        1.0000    0.77720   0.71330   0.86190   Biso      1.000     H          0.126437  
         H9        1.0000    0.80900   0.65850   0.51550   Biso      1.000     H          0.084731  
         H10       1.0000    0.10370   0.39530   0.34890   Biso      1.000     H          0.086987  
         H11       1.0000    0.90400   0.83050   0.37870   Biso      1.000     H          0.133012  
         H12       1.0000    0.29980   0.80210   0.52810   Biso      1.000     H          0.125795  
         H13       1.0000    0.32150   0.68140   0.54740   Biso      1.000     H          0.088759  
         H14       1.0000    0.42170   0.64190   0.39580   Biso      1.000     H          0.091466  
         H15       1.0000    0.39600   0.76170   0.37210   Biso      1.000     H          0.140791  
         H16       1.0000    0.69580   0.17080   0.33490   Biso      1.000     H          0.133947  
         H17       1.0000    0.59290   0.28140   0.31900   Biso      1.000     H          0.089634  
         H18       1.0000    0.09600   0.16950   0.87870   Biso      1.000     H          0.133005  
         H19       1.0000    0.22280   0.28670   0.36190   Biso      1.000     H          0.126439  
         H20       1.0000    0.89280   0.70640   0.36250   Biso      1.000     H          0.091778  
         H21       1.0000    0.10720   0.29360   0.86250   Biso      1.000     H          0.09177   
         H22       1.0000    0.67850   0.31860   0.04740   Biso      1.000     H          0.088759  
         H23       1.0000    0.19190   0.21880   0.03550   Biso      1.000     H          0.121364  
         H24       1.0000    0.32150   0.68140   0.95260   Biso      1.000     H          0.088758  
         H25       1.0000    0.29980   0.80210   0.97190   Biso      1.000     H          0.125796  
         H26       1.0000    0.19100   0.34150   0.01550   Biso      1.000     H          0.084732  
         H27       1.0000    0.89280   0.70640   0.13750   Biso      1.000     H          0.091774  
         H28       1.0000    0.80900   0.65850   0.98450   Biso      1.000     H          0.084731  
         H29       1.0000    0.80810   0.78120   0.96450   Biso      1.000     H          0.121362  
         H30       1.0000    0.42170   0.64190   0.10420   Biso      1.000     H          0.091463  
         H31       1.0000    0.23380   0.70590   0.25000   Biso      1.000     H          0.116717  
         H32       1.0000    0.88630   0.73240   0.25000   Biso      1.000     H          0.09005   
         H33       1.0000    0.74930   0.83750   0.25000   Biso      1.000     H          0.140716  
         H34       1.0000    0.76620   0.29410   0.75000   Biso      1.000     H          0.116716  
         H35       1.0000    0.61660   0.39590   0.75000   Biso      1.000     H          0.078003  
         H36       1.0000    0.11370   0.26760   0.75000   Biso      1.000     H          0.090046  
         H37       1.0000    0.25070   0.16250   0.75000   Biso      1.000     H          0.14071   
         H38       1.0000    0.38340   0.60410   0.25000   Biso      1.000     H          0.078     
         H39       1.0000    0.39600   0.76170   0.12790   Biso      1.000     H          0.140789  
         H40       1.0000    0.90400   0.83050   0.12130   Biso      1.000     H          0.133011  
         H41       1.0000    0.59290   0.28140   0.18100   Biso      1.000     H          0.089631  
         H42       1.0000    0.77720   0.71330   0.63810   Biso      1.000     H          0.126439  
         H43       1.0000    0.89630   0.60470   0.65110   Biso      1.000     H          0.086986  
         H44       1.0000    0.69580   0.17080   0.16510   Biso      1.000     H          0.133946  
         H45       1.0000    0.30420   0.82920   0.66510   Biso      1.000     H          0.133945  
         H46       1.0000    0.60400   0.23830   0.62790   Biso      1.000     H          0.140789  
         H47       1.0000    0.57830   0.35810   0.60420   Biso      1.000     H          0.091465  
         H48       1.0000    0.67850   0.31860   0.45260   Biso      1.000     H          0.088762  
         H49       1.0000    0.40710   0.71860   0.68100   Biso      1.000     H          0.089633  
         H50       1.0000    0.09600   0.16950   0.62130   Biso      1.000     H          0.133008  
         H51       1.0000    0.10720   0.29360   0.63750   Biso      1.000     H          0.091775  
         H52       1.0000    0.19100   0.34150   0.48450   Biso      1.000     H          0.084733  
         H53       1.0000    0.19190   0.21880   0.46450   Biso      1.000     H          0.121365  
         H54       1.0000    0.22280   0.28670   0.13810   Biso      1.000     H          0.126439  
         H55       1.0000    0.10370   0.39530   0.15110   Biso      1.000     H          0.086987  
         H56       1.0000    0.70020   0.19790   0.47190   Biso      1.000     H          0.125798  
         I1        1.0000    0.51054   0.52894   0.58995   Biso      1.000     I          -0.27191  
         I2        1.0000    0.97705   0.44299   0.67011   Biso      1.000     I          -0.248652           
         I3        1.0000    0.51054   0.52894   0.91005   Biso      1.000     I          -0.271917           
         I4        1.0000    0.97705   0.44299   0.82989   Biso      1.000     I          -0.248653           
         I5        1.0000    0.48946   0.47106   0.41005   Biso      1.000     I          -0.27191  
         I6        1.0000    0.00000   0.50000   0.50000   Biso      1.000     I          -0.320073           
         I7        1.0000    0.00000   0.50000   0.00000   Biso      1.000     I          -0.320082           
         I8        1.0000    0.53044   0.55961   0.75000   Biso      1.000     I          -0.247039           
         I9        1.0000    0.02295   0.55701   0.17011   Biso      1.000     I          -0.248659           
         I10       1.0000    0.46956   0.44039   0.25000   Biso      1.000     I          -0.247044           
         I11       1.0000    0.02295   0.55701   0.32989   Biso      1.000     I          -0.248655           
         I12       1.0000    0.48946   0.47106   0.08995   Biso      1.000     I          -0.271918           
         La1       1.0000    0.22471   0.01602   0.39972   Biso      1.000     La          2.002857  
         La2       1.0000    0.22471   0.01602   0.10028   Biso      1.000     La          2.002847  
         La3       1.0000    0.77529   0.98398   0.60028   Biso      1.000     La          2.002884  
         La4       1.0000    0.77529   0.98398   0.89972   Biso      1.000     La          2.002849  
         N1        1.0000    0.34800   0.34200   0.75000   Biso      1.000     N          -0.172196           
         N2        1.0000    0.65200   0.65800   0.25000   Biso      1.000     N          -0.172201           
         N3        1.0000    0.37510   0.65010   0.02620   Biso      1.000     N          -0.159256           
         N4        1.0000    0.83560   0.34940   0.16787   Biso      1.000     N          -0.154106           
         N5        1.0000    0.14900   0.32980   0.56281   Biso      1.000     N          -0.169677           
         N6        1.0000    0.62490   0.34990   0.52620   Biso      1.000     N          -0.159252           
         N7        1.0000    0.85100   0.67020   0.06281   Biso      1.000     N          -0.16968  
         N8        1.0000    0.14900   0.32980   0.93719   Biso      1.000     N          -0.16968  
         N9        1.0000    0.62490   0.34990   0.97380   Biso      1.000     N          -0.159253           
         N10       1.0000    0.16440   0.65060   0.83213   Biso      1.000     N          -0.154107           
         N11       1.0000    0.85100   0.67020   0.43719   Biso      1.000     N          -0.169678           
         N12       1.0000    0.37510   0.65010   0.47380   Biso      1.000     N          -0.159252           
         N13       1.0000    0.83560   0.34940   0.33213   Biso      1.000     N          -0.154102           
         N14       1.0000    0.16440   0.65060   0.66787   Biso      1.000     N          -0.154102           
         O1        1.0000    0.70290   0.08110   0.53077   Biso      1.000     O          -0.628961           
         O2        1.0000    0.08360   0.05100   0.56362   Biso      1.000     O          -0.620034           
         O3        1.0000    0.21300   0.08470   0.48276   Biso      1.000     O          -0.636453           
         O4        1.0000    0.23090   0.14960   0.13933   Biso      1.000     O          -0.660304           
         O5        1.0000    0.93610   0.08480   0.13424   Biso      1.000     O          -0.600577           
         O6        1.0000    0.78700   0.91530   0.98276   Biso      1.000     O          -0.636455           
         O7        1.0000    0.29710   0.91890   0.03077   Biso      1.000     O          -0.628953           
         O8        1.0000    0.91640   0.94900   0.06362   Biso      1.000     O          -0.620033           
         O9        1.0000    0.48060   0.91500   0.25000   Biso      1.000     O          -0.67887  
         O10       1.0000    0.19340   0.84040   0.25000   Biso      1.000     O          -0.642958           
         O11       1.0000    0.66140   0.10800   0.61617   Biso      1.000     O          -0.586084           
         O12       1.0000    0.33860   0.89200   0.11617   Biso      1.000     O          -0.586079           
         O13       1.0000    0.06390   0.91520   0.63424   Biso      1.000     O          -0.600593           
         O14       1.0000    0.78700   0.91530   0.51724   Biso      1.000     O          -0.636452           
         O15       1.0000    0.21300   0.08470   0.01724   Biso      1.000     O          -0.636453           
         O16       1.0000    0.08360   0.05100   0.93638   Biso      1.000     O          -0.620037           
         O17       1.0000    0.70290   0.08110   0.96923   Biso      1.000     O          -0.628951           
         O18       1.0000    0.66140   0.10800   0.88383   Biso      1.000     O          -0.586082           
         O19       1.0000    0.06390   0.91520   0.86576   Biso      1.000     O          -0.600574           
         O20       1.0000    0.76910   0.85040   0.86067   Biso      1.000     O          -0.660303           
         O21       1.0000    0.51940   0.08500   0.75000   Biso      1.000     O          -0.678875           
         O22       1.0000    0.91640   0.94900   0.43638   Biso      1.000     O          -0.620021           
         O23       1.0000    0.29710   0.91890   0.46923   Biso      1.000     O          -0.628951           
         O24       1.0000    0.33860   0.89200   0.38383   Biso      1.000     O          -0.58607  
         O25       1.0000    0.93610   0.08480   0.36576   Biso      1.000     O          -0.600587           
         O26       1.0000    0.23090   0.14960   0.36067   Biso      1.000     O          -0.660306           
         O27       1.0000    0.76910   0.85040   0.63933   Biso      1.000     O          -0.660307           
         O28       1.0000    0.80660   0.15960   0.75000   Biso      1.000     O          -0.642965 