
##########################################################################
#               Crystallographic Information Format file
#               Produced by PyCifRW module
#
#  This is a CIF file.  CIF has been adopted by the International
#  Union of Crystallography as the standard for data archiving and
#  transmission.
#
#  For information on this file format, follow the CIF links at
#  http://www.iucr.org
##########################################################################

data_image0

_cell_length_a                          9.423
_cell_length_b                          9.947
_cell_length_c                          11.419
_cell_angle_alpha                       93.633
_cell_angle_beta                        98.092
_cell_angle_gamma                       110.649
_symmetry_space_group_name_H-M          'P 1'
_symmetry_int_tables_number             1
loop_
  _symmetry_equiv_pos_as_xyz
         'x, y, z' 
loop_
  _atom_site_label
  _atom_site_occupancy
  _atom_site_fract_x
  _atom_site_fract_y
  _atom_site_fract_z
  _atom_site_thermal_displace_type
  _atom_site_B_iso_or_equiv
  _atom_site_type_symbol
  _atom_site_charge
         C1        1.0000    0.99570   0.32260   0.61270   Biso      1.000     C          0.284756  
         C2        1.0000    0.01230   0.16290   0.45630   Biso      1.000     C          -0.083996           
         C3        1.0000    0.88420   0.17420   0.38410   Biso      1.000     C          -0.052506           
         C4        1.0000    0.81870   0.26670   0.42950   Biso      1.000     C          -0.073646           
         C5        1.0000    0.87200   0.34080   0.54130   Biso      1.000     C          -0.237996           
         C6        1.0000    0.92530   0.74430   0.96830   Biso      1.000     C          0.661666  
         C7        1.0000    0.82210   0.31020   0.81110   Biso      1.000     C          -0.23867199999999997          
         C8        1.0000    0.95160   0.42240   0.79250   Biso      1.000     C          0.28207   
         C9        1.0000    0.98990   0.56300   0.84480   Biso      1.000     C          -0.214348           
         C10       1.0000    0.88820   0.59260   0.91080   Biso      1.000     C          -0.011617           
         C11       1.0000    0.75320   0.48470   0.92310   Biso      1.000     C          -0.14363  
         C12       1.0000    0.72180   0.34270   0.87540   Biso      1.000     C          0.013987000000000001          
         C13       1.0000    0.57930   0.22600   0.89640   Biso      1.000     C          0.6369279999999999  
         C14       1.0000    0.42070   0.77400   0.10360   Biso      1.000     C          0.636927  
         C15       1.0000    0.27820   0.65730   0.12460   Biso      1.000     C          0.013986000000000002          
         C16       1.0000    0.24680   0.51530   0.07690   Biso      1.000     C          -0.14363199999999998          
         C17       1.0000    0.11180   0.40740   0.08920   Biso      1.000     C          -0.011616           
         C18       1.0000    0.01010   0.43700   0.15520   Biso      1.000     C          -0.21434899999999998          
         C19       1.0000    0.04840   0.57760   0.20750   Biso      1.000     C          0.282072  
         C20       1.0000    0.17790   0.68980   0.18890   Biso      1.000     C          -0.238669           
         C21       1.0000    0.07470   0.25570   0.03170   Biso      1.000     C          0.661666  
         C22       1.0000    0.12800   0.65920   0.45870   Biso      1.000     C          -0.238008           
         C23       1.0000    0.18130   0.73330   0.57050   Biso      1.000     C          -0.07363600000000001          
         C24       1.0000    0.11580   0.82580   0.61590   Biso      1.000     C          -0.052507000000000005         
         C25       1.0000    0.98770   0.83710   0.54370   Biso      1.000     C          -0.083994           
         C26       1.0000    0.93250   0.76370   0.43030   Biso      1.000     C          -0.21089000000000002          
         C27       1.0000    0.00430   0.67740   0.38730   Biso      1.000     C          0.284763  
         C28       1.0000    0.17540   0.90980   0.73440   Biso      1.000     C          0.584688  
         C29       1.0000    0.06750   0.23630   0.56970   Biso      1.000     C          -0.21088400000000002          
         C30       1.0000    0.82460   0.09020   0.26560   Biso      1.000     C          0.584688  
         Ce1       1.0000    0.28419   0.04592   0.98479   Biso      1.000     Ce          2.059882  
         Ce2       1.0000    0.71581   0.95408   0.01521   Biso      1.000     Ce          2.059882  
         H1        1.0000    0.68320   0.50650   0.96320   Biso      1.000     H          0.135484  
         H2        1.0000    0.08100   0.63570   0.83630   Biso      1.000     H          0.147621  
         H3        1.0000    0.80300   0.21510   0.78110   Biso      1.000     H          0.14058299999999999           
         H4        1.0000    0.82660   0.40260   0.56960   Biso      1.000     H          0.13433   
         H5        1.0000    0.73610   0.27850   0.38240   Biso      1.000     H          0.116317  
         H6        1.0000    0.06090   0.10450   0.42700   Biso      1.000     H          0.11373   
         H7        1.0000    0.84780   0.77260   0.38360   Biso      1.000     H          0.147749  
         H8        1.0000    0.31680   0.49350   0.03680   Biso      1.000     H          0.135484  
         H9        1.0000    0.91900   0.36430   0.16370   Biso      1.000     H          0.147622  
         H10       1.0000    0.19700   0.78490   0.21890   Biso      1.000     H          0.14058299999999999           
         H11       1.0000    0.17340   0.59740   0.43040   Biso      1.000     H          0.134331  
         H12       1.0000    0.26390   0.72150   0.61760   Biso      1.000     H          0.116316  
         H13       1.0000    0.93910   0.89550   0.57300   Biso      1.000     H          0.11373   
         H14       1.0000    0.15220   0.22740   0.61640   Biso      1.000     H          0.147748  
         O1        1.0000    0.28600   0.88970   0.80030   Biso      1.000     O          -0.664168           
         O2        1.0000    0.94450   0.16380   0.03170   Biso      1.000     O          -0.691246           
         O3        1.0000    0.17770   0.23100   0.98650   Biso      1.000     O          -0.6620510000000001           
         O4        1.0000    0.41520   0.89250   0.07510   Biso      1.000     O          -0.7416560000000001           
         O5        1.0000    0.54380   0.74890   0.11260   Biso      1.000     O          -0.593106           
         O6        1.0000    0.05450   0.39500   0.72640   Biso      1.000     O          -0.22295399999999999          
         O7        1.0000    0.05550   0.83620   0.96830   Biso      1.000     O          -0.691246           
         O8        1.0000    0.71400   0.11030   0.19970   Biso      1.000     O          -0.664168           
         O9        1.0000    0.82230   0.76900   0.01350   Biso      1.000     O          -0.6620510000000001           
         O10       1.0000    0.58480   0.10750   0.92490   Biso      1.000     O          -0.7416560000000001           
         O11       1.0000    0.45620   0.25110   0.88740   Biso      1.000     O          -0.593106           
         O12       1.0000    0.12080   0.00000   0.77160   Biso      1.000     O          -0.617315           
         O13       1.0000    0.87920   0.00000   0.22840   Biso      1.000     O          -0.617315           
         O14       1.0000    0.94550   0.60500   0.27360   Biso      1.000     O          -0.22295500000000001 