
##########################################################################
#               Crystallographic Information Format file
#               Produced by PyCifRW module
#
#  This is a CIF file.  CIF has been adopted by the International
#  Union of Crystallography as the standard for data archiving and
#  transmission.
#
#  For information on this file format, follow the CIF links at
#  http://www.iucr.org
##########################################################################

data_image0

_cell_length_a                          9.341
_cell_length_b                          9.849
_cell_length_c                          11.422
_cell_angle_alpha                       94.076
_cell_angle_beta                        98.577
_cell_angle_gamma                       110.927
_symmetry_space_group_name_H-M          'P 1'
_symmetry_int_tables_number             1
loop_
  _symmetry_equiv_pos_as_xyz
         'x, y, z' 
loop_
  _atom_site_label
  _atom_site_occupancy
  _atom_site_fract_x
  _atom_site_fract_y
  _atom_site_fract_z
  _atom_site_thermal_displace_type
  _atom_site_B_iso_or_equiv
  _atom_site_type_symbol
  _atom_site_charge
         C1        1.0000    0.92240   0.24700   0.96730   Biso      1.000     C          0.610748  
         C2        1.0000    0.72020   0.83800   0.87420   Biso      1.000     C          0.025165  
         C3        1.0000    0.75040   0.98170   0.92210   Biso      1.000     C          -0.116949           
         C4        1.0000    0.88800   0.09330   0.90990   Biso      1.000     C          -0.000139           
         C5        1.0000    0.98880   0.06410   0.84440   Biso      1.000     C          -0.212018           
         C6        1.0000    0.95290   0.92130   0.79210   Biso      1.000     C          0.286624  
         C7        1.0000    0.81640   0.76320   0.42730   Biso      1.000     C          -0.076625           
         C8        1.0000    0.87000   0.83710   0.53960   Biso      1.000     C          -0.216897           
         C9        1.0000    0.99650   0.82120   0.61120   Biso      1.000     C          0.289871  
         C10       1.0000    0.06880   0.73660   0.56810   Biso      1.000     C          -0.197632           
         C11       1.0000    0.01510   0.66160   0.45240   Biso      1.000     C          -0.084648           
         C12       1.0000    0.88590   0.67260   0.38040   Biso      1.000     C          -0.021698           
         C13       1.0000    0.82430   0.58830   0.26000   Biso      1.000     C          0.530608  
         C14       1.0000    0.17570   0.41170   0.74000   Biso      1.000     C          0.530606  
         C15       1.0000    0.11410   0.32740   0.61960   Biso      1.000     C          -0.02171  
         C16       1.0000    0.98490   0.33840   0.54760   Biso      1.000     C          -0.084639           
         C17       1.0000    0.93120   0.26340   0.43190   Biso      1.000     C          -0.197642           
         C18       1.0000    0.00350   0.17880   0.38880   Biso      1.000     C          0.289884  
         C19       1.0000    0.13000   0.16290   0.46040   Biso      1.000     C          -0.216904           
         C20       1.0000    0.18360   0.23680   0.57270   Biso      1.000     C          -0.076607           
         C21       1.0000    0.04710   0.07870   0.20790   Biso      1.000     C          0.286622  
         C22       1.0000    0.01120   0.93590   0.15560   Biso      1.000     C          -0.21201  
         C23       1.0000    0.11200   0.90670   0.09010   Biso      1.000     C          -0.000138           
         C24       1.0000    0.24960   0.01830   0.07790   Biso      1.000     C          -0.116953           
         C25       1.0000    0.27980   0.16200   0.12580   Biso      1.000     C          0.02517   
         C26       1.0000    0.17710   0.19210   0.19000   Biso      1.000     C          -0.240068           
         C27       1.0000    0.07760   0.75300   0.03270   Biso      1.000     C          0.610745  
         C28       1.0000    0.42010   0.28200   0.10240   Biso      1.000     C          0.591403  
         C29       1.0000    0.82290   0.80790   0.81000   Biso      1.000     C          -0.240059           
         C30       1.0000    0.57990   0.71800   0.89760   Biso      1.000     C          0.591414  
         Eu1       1.0000    0.71801   0.45464   0.01471   Biso      1.000     Eu          1.386731  
         Eu2       1.0000    0.28199   0.54536   0.98529   Biso      1.000     Eu          1.386721  
         H1        1.0000    0.06550   0.60420   0.42290   Biso      1.000     H          0.120898  
         H2        1.0000    0.15440   0.72850   0.61590   Biso      1.000     H          0.150821  
         H3        1.0000    0.82290   0.89780   0.56860   Biso      1.000     H          0.134735  
         H4        1.0000    0.73130   0.77310   0.38030   Biso      1.000     H          0.123083  
         H5        1.0000    0.07960   0.13900   0.83540   Biso      1.000     H          0.145383  
         H6        1.0000    0.67950   0.00300   0.96190   Biso      1.000     H          0.139005  
         H7        1.0000    0.19590   0.28810   0.22070   Biso      1.000     H          0.147603  
         H8        1.0000    0.93450   0.39580   0.57710   Biso      1.000     H          0.1209    
         H9        1.0000    0.84560   0.27150   0.38410   Biso      1.000     H          0.150825  
         H10       1.0000    0.17710   0.10220   0.43140   Biso      1.000     H          0.134738  
         H11       1.0000    0.26870   0.22690   0.61970   Biso      1.000     H          0.123083  
         H12       1.0000    0.92040   0.86100   0.16460   Biso      1.000     H          0.145384  
         H13       1.0000    0.32050   0.99700   0.03810   Biso      1.000     H          0.139005  
         H14       1.0000    0.80410   0.71190   0.77930   Biso      1.000     H          0.147599  
         O1        1.0000    0.54710   0.26190   0.11120   Biso      1.000     O          -0.514587           
         O2        1.0000    0.94500   0.65900   0.03180   Biso      1.000     O          -0.602539           
         O3        1.0000    0.18260   0.72930   0.98930   Biso      1.000     O          -0.589173           
         O4        1.0000    0.12060   0.50300   0.77740   Biso      1.000     O          -0.491821           
         O5        1.0000    0.28480   0.38980   0.80800   Biso      1.000     O          -0.526239           
         O6        1.0000    0.05630   0.89490   0.72620   Biso      1.000     O          -0.180973           
         O7        1.0000    0.05500   0.34100   0.96820   Biso      1.000     O          -0.602543           
         O8        1.0000    0.45290   0.73810   0.88880   Biso      1.000     O          -0.514614           
         O9        1.0000    0.81740   0.27070   0.01070   Biso      1.000     O          -0.589183           
         O10       1.0000    0.87940   0.49700   0.22260   Biso      1.000     O          -0.491844           
         O11       1.0000    0.71520   0.61020   0.19200   Biso      1.000     O          -0.526268           
         O12       1.0000    0.41010   0.39950   0.07450   Biso      1.000     O          -0.610618           
         O13       1.0000    0.58990   0.60050   0.92550   Biso      1.000     O          -0.610661           
         O14       1.0000    0.94370   0.10510   0.27380   Biso      1.000     O          -0.180975 