
##########################################################################
#               Crystallographic Information Format file
#               Produced by PyCifRW module
#
#  This is a CIF file.  CIF has been adopted by the International
#  Union of Crystallography as the standard for data archiving and
#  transmission.
#
#  For information on this file format, follow the CIF links at
#  http://www.iucr.org
##########################################################################

data_image0

_cell_length_a                          9.398
_cell_length_b                          9.911
_cell_length_c                          11.422
_cell_angle_alpha                       93.965
_cell_angle_beta                        98.131
_cell_angle_gamma                       110.782
_symmetry_space_group_name_H-M          'P 1'
_symmetry_int_tables_number             1
loop_
  _symmetry_equiv_pos_as_xyz
         'x, y, z' 
loop_
  _atom_site_label
  _atom_site_occupancy
  _atom_site_fract_x
  _atom_site_fract_y
  _atom_site_fract_z
  _atom_site_thermal_displace_type
  _atom_site_B_iso_or_equiv
  _atom_site_type_symbol
  _atom_site_charge
         C1        1.0000    0.17870   0.19080   0.68850   Biso      1.000     C          -0.23092100000000002          
         C2        1.0000    0.07540   0.75540   0.53290   Biso      1.000     C          0.670041  
         C3        1.0000    0.24860   0.01680   0.57760   Biso      1.000     C          -0.141488           
         C4        1.0000    0.27840   0.15750   0.62410   Biso      1.000     C          0.016569999999999998          
         C5        1.0000    0.42030   0.27460   0.60240   Biso      1.000     C          0.637312  
         C6        1.0000    0.82340   0.58950   0.76350   Biso      1.000     C          0.596545  
         C7        1.0000    0.88350   0.67350   0.88340   Biso      1.000     C          -0.052105           
         C8        1.0000    0.01130   0.66100   0.95540   Biso      1.000     C          -0.08443400000000001          
         C9        1.0000    0.06590   0.73560   0.07020   Biso      1.000     C          -0.213525           
         C10       1.0000    0.99550   0.82220   0.11300   Biso      1.000     C          0.284512  
         C11       1.0000    0.87410   0.84080   0.04080   Biso      1.000     C          -0.233197           
         C12       1.0000    0.81980   0.76620   0.92940   Biso      1.000     C          -0.075263           
         C13       1.0000    0.95120   0.92140   0.29380   Biso      1.000     C          0.283123  
         C14       1.0000    0.98860   0.06130   0.34510   Biso      1.000     C          -0.21236300000000002          
         C15       1.0000    0.88850   0.09360   0.41020   Biso      1.000     C          -0.010262           
         C16       1.0000    0.92460   0.24460   0.46710   Biso      1.000     C          0.670041  
         C17       1.0000    0.75140   0.98320   0.42240   Biso      1.000     C          -0.141488           
         C18       1.0000    0.72160   0.84250   0.37590   Biso      1.000     C          0.016567  
         C19       1.0000    0.82130   0.80920   0.31150   Biso      1.000     C          -0.230915           
         C20       1.0000    0.57970   0.72540   0.39760   Biso      1.000     C          0.637312  
         C21       1.0000    0.01140   0.93870   0.65490   Biso      1.000     C          -0.212371           
         C22       1.0000    0.04880   0.07860   0.70620   Biso      1.000     C          0.28313299999999997           
         C23       1.0000    0.11150   0.90640   0.58980   Biso      1.000     C          -0.010261           
         C24       1.0000    0.12590   0.15920   0.95920   Biso      1.000     C          -0.23319600000000001          
         C25       1.0000    0.00450   0.17780   0.88700   Biso      1.000     C          0.284502  
         C26       1.0000    0.93410   0.26440   0.92980   Biso      1.000     C          -0.21351399999999998          
         C27       1.0000    0.98870   0.33900   0.04460   Biso      1.000     C          -0.084435           
         C28       1.0000    0.11650   0.32650   0.11660   Biso      1.000     C          -0.052104           
         C29       1.0000    0.17660   0.41050   0.23650   Biso      1.000     C          0.596545  
         C30       1.0000    0.18020   0.23380   0.07060   Biso      1.000     C          -0.075263           
         H1        1.0000    0.94020   0.39780   0.07400   Biso      1.000     H          0.112818  
         H2        1.0000    0.84980   0.27370   0.88250   Biso      1.000     H          0.146836  
         H3        1.0000    0.17010   0.09570   0.93140   Biso      1.000     H          0.13022999999999998           
         H4        1.0000    0.26330   0.22190   0.11730   Biso      1.000     H          0.114224  
         H5        1.0000    0.91970   0.86610   0.66370   Biso      1.000     H          0.147004  
         H6        1.0000    0.31940   0.99510   0.53820   Biso      1.000     H          0.137188  
         H7        1.0000    0.19860   0.28640   0.71910   Biso      1.000     H          0.139896  
         H8        1.0000    0.15020   0.72630   0.11750   Biso      1.000     H          0.146837  
         H9        1.0000    0.82990   0.90430   0.06860   Biso      1.000     H          0.13022999999999998           
         H10       1.0000    0.73670   0.77810   0.88270   Biso      1.000     H          0.114224  
         H11       1.0000    0.08030   0.13390   0.33630   Biso      1.000     H          0.147004  
         H12       1.0000    0.68060   0.00490   0.46180   Biso      1.000     H          0.137188  
         H13       1.0000    0.80140   0.71360   0.28090   Biso      1.000     H          0.139896  
         H14       1.0000    0.05980   0.60220   0.92600   Biso      1.000     H          0.112818  
         O1        1.0000    0.82130   0.26980   0.51200   Biso      1.000     O          -0.675555           
         O2        1.0000    0.94440   0.10620   0.77290   Biso      1.000     O          -0.22694099999999998          
         O3        1.0000    0.58530   0.60590   0.42560   Biso      1.000     O          -0.755167           
         O4        1.0000    0.05520   0.33780   0.46840   Biso      1.000     O          -0.7047899999999999           
         O5        1.0000    0.87760   0.49970   0.72630   Biso      1.000     O          -0.623447           
         O6        1.0000    0.71510   0.61060   0.69770   Biso      1.000     O          -0.669679           
         O7        1.0000    0.54620   0.25180   0.61130   Biso      1.000     O          -0.6011890000000001           
         O8        1.0000    0.05560   0.89380   0.22710   Biso      1.000     O          -0.22694099999999998          
         O9        1.0000    0.17870   0.73020   0.48800   Biso      1.000     O          -0.675555           
         O10       1.0000    0.94480   0.66220   0.53160   Biso      1.000     O          -0.7047899999999999           
         O11       1.0000    0.12240   0.50030   0.27370   Biso      1.000     O          -0.623447           
         O12       1.0000    0.28490   0.38940   0.30230   Biso      1.000     O          -0.669679           
         O13       1.0000    0.45380   0.74820   0.38870   Biso      1.000     O          -0.6011890000000001           
         O14       1.0000    0.41470   0.39410   0.57440   Biso      1.000     O          -0.755167           
         Pr1       1.0000    0.71572   0.45440   0.51488   Biso      1.000     Pr          2.09402   
         Pr2       1.0000    0.28428   0.54560   0.48512   Biso      1.000     Pr          2.09402 