
##########################################################################
#               Crystallographic Information Format file
#               Produced by PyCifRW module
#
#  This is a CIF file.  CIF has been adopted by the International
#  Union of Crystallography as the standard for data archiving and
#  transmission.
#
#  For information on this file format, follow the CIF links at
#  http://www.iucr.org
##########################################################################

data_image0

_cell_length_a                          8.566
_cell_length_b                          8.566
_cell_length_c                          37.811
_cell_angle_alpha                       90
_cell_angle_beta                        90
_cell_angle_gamma                       120
_symmetry_space_group_name_H-M          'P 1'
_symmetry_int_tables_number             1
loop_
  _symmetry_equiv_pos_as_xyz
         'x, y, z' 
loop_
  _atom_site_label
  _atom_site_occupancy
  _atom_site_fract_x
  _atom_site_fract_y
  _atom_site_fract_z
  _atom_site_thermal_displace_type
  _atom_site_B_iso_or_equiv
  _atom_site_type_symbol
  _atom_site_charge
         C1        1.0000    0.29520   0.59040   0.83333   Biso      1.000     C          0.48493800000000004           
         C2        1.0000    0.32130   0.09520   0.05043   Biso      1.000     C          0.47615100000000005           
         C3        1.0000    0.10070   0.82250   0.94125   Biso      1.000     C          0.470237  
         C4        1.0000    0.90480   0.67870   0.94957   Biso      1.000     C          0.47615   
         C5        1.0000    0.17750   0.27820   0.27458   Biso      1.000     C          0.470422  
         C6        1.0000    0.32130   0.22610   0.28290   Biso      1.000     C          0.47602   
         C7        1.0000    0.72180   0.89930   0.60791   Biso      1.000     C          0.470292  
         C8        1.0000    0.17750   0.89930   0.05875   Biso      1.000     C          0.470237  
         C9        1.0000    0.77390   0.09520   0.61623   Biso      1.000     C          0.47610600000000003           
         C10       1.0000    0.09520   0.32130   0.94957   Biso      1.000     C          0.47614700000000004           
         C11       1.0000    0.82250   0.72180   0.27458   Biso      1.000     C          0.470419  
         C12       1.0000    0.67870   0.77390   0.28290   Biso      1.000     C          0.47601899999999997           
         C13       1.0000    0.27820   0.10070   0.60791   Biso      1.000     C          0.47029099999999996           
         C14       1.0000    0.22610   0.90480   0.61623   Biso      1.000     C          0.476108  
         C15       1.0000    0.70480   0.40960   0.83333   Biso      1.000     C          0.484936  
         C16       1.0000    0.89930   0.17750   0.94125   Biso      1.000     C          0.470237  
         C17       1.0000    0.90480   0.22610   0.38377   Biso      1.000     C          0.476102  
         C18       1.0000    0.10070   0.27820   0.39209   Biso      1.000     C          0.470287  
         C19       1.0000    0.77390   0.67870   0.71710   Biso      1.000     C          0.476024  
         C20       1.0000    0.61440   0.80720   0.16667   Biso      1.000     C          0.485475  
         C21       1.0000    0.40960   0.70480   0.16667   Biso      1.000     C          0.48494899999999996           
         C22       1.0000    0.19280   0.80720   0.50000   Biso      1.000     C          0.485613  
         C23       1.0000    0.29520   0.70480   0.50000   Biso      1.000     C          0.484753  
         C24       1.0000    0.19280   0.38560   0.83333   Biso      1.000     C          0.485467  
         C25       1.0000    0.38560   0.19280   0.16667   Biso      1.000     C          0.48547399999999996           
         C26       1.0000    0.59040   0.29520   0.16667   Biso      1.000     C          0.48494799999999993           
         C27       1.0000    0.80720   0.19280   0.50000   Biso      1.000     C          0.485613  
         C28       1.0000    0.27820   0.17750   0.72542   Biso      1.000     C          0.47042399999999995           
         C29       1.0000    0.22610   0.32130   0.71710   Biso      1.000     C          0.476025  
         C30       1.0000    0.89930   0.72180   0.39209   Biso      1.000     C          0.47029   
         C31       1.0000    0.09520   0.77390   0.38377   Biso      1.000     C          0.476103  
         C32       1.0000    0.82250   0.10070   0.05875   Biso      1.000     C          0.470237  
         C33       1.0000    0.67870   0.90480   0.05043   Biso      1.000     C          0.476154  
         C34       1.0000    0.72180   0.82250   0.72542   Biso      1.000     C          0.47042399999999995           
         C35       1.0000    0.80720   0.61440   0.83333   Biso      1.000     C          0.485466  
         C36       1.0000    0.70480   0.29520   0.50000   Biso      1.000     C          0.484752  
         Cd1       1.0000    0.00000   0.00000   0.66667   Biso      1.000     Cd          1.014274  
         Cd2       1.0000    0.00000   0.00000   0.00000   Biso      1.000     Cd          1.01441   
         Cd3       1.0000    0.00000   0.00000   0.33333   Biso      1.000     Cd          1.014283  
         In1       1.0000    0.50000   0.50000   0.22196   Biso      1.000     In          1.374701  
         In2       1.0000    0.00000   0.50000   0.88863   Biso      1.000     In          1.374573  
         In3       1.0000    0.50000   0.00000   0.55529   Biso      1.000     In          1.374555  
         In4       1.0000    0.50000   0.00000   0.11137   Biso      1.000     In          1.374576  
         In5       1.0000    0.00000   0.50000   0.44471   Biso      1.000     In          1.374555  
         In6       1.0000    0.50000   0.50000   0.77804   Biso      1.000     In          1.374703  
         O1        1.0000    0.87950   0.16920   0.64120   Biso      1.000     O          -0.306785           
         O2        1.0000    0.70490   0.16550   0.59718   Biso      1.000     O          -0.457808           
         O3        1.0000    0.42150   0.75190   0.52139   Biso      1.000     O          -0.412163           
         O4        1.0000    0.03550   0.20520   0.29269   Biso      1.000     O          -0.40576999999999996          
         O5        1.0000    0.69010   0.75620   0.18845   Biso      1.000     O          -0.440713           
         O6        1.0000    0.21410   0.39160   0.25041   Biso      1.000     O          -0.349238           
         O7        1.0000    0.16970   0.96450   0.95936   Biso      1.000     O          -0.40571599999999997          
         O8        1.0000    0.46060   0.29510   0.26385   Biso      1.000     O          -0.457719           
         O9        1.0000    0.33040   0.57850   0.18806   Biso      1.000     O          -0.412191           
         O10       1.0000    0.60840   0.82250   0.58374   Biso      1.000     O          -0.349135           
         O11       1.0000    0.06610   0.30990   0.85512   Biso      1.000     O          -0.440896           
         O12       1.0000    0.17750   0.78590   0.91708   Biso      1.000     O          -0.349102           
         O13       1.0000    0.83080   0.71030   0.97454   Biso      1.000     O          -0.306861           
         O14       1.0000    0.83450   0.53940   0.93052   Biso      1.000     O          -0.457672           
         O15       1.0000    0.28970   0.12050   0.30787   Biso      1.000     O          -0.306794           
         O16       1.0000    0.24380   0.93390   0.52178   Biso      1.000     O          -0.44082899999999997          
         O17       1.0000    0.16920   0.28970   0.97454   Biso      1.000     O          -0.30685300000000004          
         O18       1.0000    0.75190   0.33040   0.85473   Biso      1.000     O          -0.412404           
         O19       1.0000    0.24810   0.66960   0.85473   Biso      1.000     O          -0.412404           
         O20       1.0000    0.39160   0.17750   0.58374   Biso      1.000     O          -0.34913  
         O21       1.0000    0.12050   0.83080   0.64120   Biso      1.000     O          -0.30678  
         O22       1.0000    0.29510   0.83450   0.59718   Biso      1.000     O          -0.457812           
         O23       1.0000    0.57850   0.24810   0.52139   Biso      1.000     O          -0.412156           
         O24       1.0000    0.96450   0.79480   0.29269   Biso      1.000     O          -0.405767           
         O25       1.0000    0.30990   0.24380   0.18845   Biso      1.000     O          -0.44071000000000005          
         O26       1.0000    0.78590   0.60840   0.25041   Biso      1.000     O          -0.349236           
         O27       1.0000    0.71030   0.87950   0.30787   Biso      1.000     O          -0.306793           
         O28       1.0000    0.53940   0.70490   0.26385   Biso      1.000     O          -0.457716           
         O29       1.0000    0.66960   0.42150   0.18806   Biso      1.000     O          -0.41218999999999995          
         O30       1.0000    0.83030   0.03550   0.95936   Biso      1.000     O          -0.405715           
         O31       1.0000    0.93390   0.69010   0.85512   Biso      1.000     O          -0.440896           
         O32       1.0000    0.82250   0.21410   0.91708   Biso      1.000     O          -0.349095           
         O33       1.0000    0.16550   0.46060   0.93052   Biso      1.000     O          -0.457671           
         O34       1.0000    0.79480   0.83030   0.62602   Biso      1.000     O          -0.405692           
         O35       1.0000    0.03550   0.83030   0.04064   Biso      1.000     O          -0.405711           
         O36       1.0000    0.53940   0.83450   0.06948   Biso      1.000     O          -0.457671           
         O37       1.0000    0.21410   0.82250   0.08292   Biso      1.000     O          -0.349108           
         O38       1.0000    0.75620   0.06610   0.52178   Biso      1.000     O          -0.44083500000000003          
         O39       1.0000    0.66960   0.24810   0.14527   Biso      1.000     O          -0.41241099999999997          
         O40       1.0000    0.83030   0.79480   0.37398   Biso      1.000     O          -0.405695           
         O41       1.0000    0.93390   0.24380   0.47822   Biso      1.000     O          -0.44084300000000004          
         O42       1.0000    0.82250   0.60840   0.41626   Biso      1.000     O          -0.349129           
         O43       1.0000    0.16920   0.87950   0.35880   Biso      1.000     O          -0.306779           
         O44       1.0000    0.71030   0.83080   0.02546   Biso      1.000     O          -0.306874           
         O45       1.0000    0.16550   0.70490   0.40282   Biso      1.000     O          -0.457809           
         O46       1.0000    0.20520   0.03550   0.70731   Biso      1.000     O          -0.405771           
         O47       1.0000    0.75620   0.69010   0.81155   Biso      1.000     O          -0.440701           
         O48       1.0000    0.39160   0.21410   0.74959   Biso      1.000     O          -0.34923899999999997          
         O49       1.0000    0.12050   0.28970   0.69213   Biso      1.000     O          -0.306792           
         O50       1.0000    0.29510   0.46060   0.73615   Biso      1.000     O          -0.457721           
         O51       1.0000    0.57850   0.33040   0.81194   Biso      1.000     O          -0.41218699999999997          
         O52       1.0000    0.75190   0.42150   0.47861   Biso      1.000     O          -0.41215  
         O53       1.0000    0.78590   0.17750   0.08292   Biso      1.000     O          -0.349108           
         O54       1.0000    0.30990   0.06610   0.14488   Biso      1.000     O          -0.440895           
         O55       1.0000    0.96450   0.16970   0.04064   Biso      1.000     O          -0.405713           
         O56       1.0000    0.28970   0.16920   0.02546   Biso      1.000     O          -0.306874           
         O57       1.0000    0.46060   0.16550   0.06948   Biso      1.000     O          -0.45766899999999994          
         O58       1.0000    0.33040   0.75190   0.14527   Biso      1.000     O          -0.41241300000000003          
         O59       1.0000    0.16970   0.20520   0.37398   Biso      1.000     O          -0.405692           
         O60       1.0000    0.06610   0.75620   0.47822   Biso      1.000     O          -0.44085  
         O61       1.0000    0.17750   0.39160   0.41626   Biso      1.000     O          -0.349129           
         O62       1.0000    0.83080   0.12050   0.35880   Biso      1.000     O          -0.30678  
         O63       1.0000    0.83450   0.29510   0.40282   Biso      1.000     O          -0.45780699999999996          
         O64       1.0000    0.24810   0.57850   0.47861   Biso      1.000     O          -0.412145           
         O65       1.0000    0.79480   0.96450   0.70731   Biso      1.000     O          -0.40576799999999996          
         O66       1.0000    0.24380   0.30990   0.81155   Biso      1.000     O          -0.440701           
         O67       1.0000    0.60840   0.78590   0.74959   Biso      1.000     O          -0.34924499999999997          
         O68       1.0000    0.87950   0.71030   0.69213   Biso      1.000     O          -0.306798           
         O69       1.0000    0.70490   0.53940   0.73615   Biso      1.000     O          -0.457718           
         O70       1.0000    0.42150   0.66960   0.81194   Biso      1.000     O          -0.41218699999999997          
         O71       1.0000    0.69010   0.93390   0.14488   Biso      1.000     O          -0.440896           
         O72       1.0000    0.20520   0.16970   0.62602   Biso      1.000     O          -0.405696 