
##########################################################################
#               Crystallographic Information Format file
#               Produced by PyCifRW module
#
#  This is a CIF file.  CIF has been adopted by the International
#  Union of Crystallography as the standard for data archiving and
#  transmission.
#
#  For information on this file format, follow the CIF links at
#  http://www.iucr.org
##########################################################################

data_image0

_cell_length_a                          9.22
_cell_length_b                          10.75
_cell_length_c                          18.831
_cell_angle_alpha                       90
_cell_angle_beta                        90
_cell_angle_gamma                       104.087
_symmetry_space_group_name_H-M          'P 1'
_symmetry_int_tables_number             1
loop_
  _symmetry_equiv_pos_as_xyz
         'x, y, z' 
loop_
  _atom_site_label
  _atom_site_occupancy
  _atom_site_fract_x
  _atom_site_fract_y
  _atom_site_fract_z
  _atom_site_thermal_displace_type
  _atom_site_B_iso_or_equiv
  _atom_site_type_symbol
  _atom_site_charge
         C1        1.0000    0.17040   0.72160   0.85320   Biso      1.000     C          -0.038653           
         C2        1.0000    0.98850   0.86960   0.00306   Biso      1.000     C          -0.119815           
         C3        1.0000    0.88680   0.04740   0.97081   Biso      1.000     C          -0.117281           
         C4        1.0000    0.87320   0.91480   0.97314   Biso      1.000     C          -0.017185           
         C5        1.0000    0.75850   0.12770   0.72815   Biso      1.000     C          0.10359000000000002           
         C6        1.0000    0.63590   0.25270   0.77501   Biso      1.000     C          -0.045363           
         C7        1.0000    0.75760   0.26290   0.81564   Biso      1.000     C          -0.107628           
         C8        1.0000    0.32860   0.90050   0.83489   Biso      1.000     C          0.114446  
         C9        1.0000    0.09070   0.81050   0.84792   Biso      1.000     C          -0.115024           
         C10       1.0000    0.34120   0.39850   0.86671   Biso      1.000     C          0.571588  
         C11       1.0000    0.08600   0.28290   0.82745   Biso      1.000     C          -0.21994  
         C12       1.0000    0.98200   0.17250   0.80780   Biso      1.000     C          0.189111  
         C13       1.0000    0.01650   0.05440   0.80821   Biso      1.000     C          -0.26650100000000004          
         C14       1.0000    0.77170   0.22400   0.34880   Biso      1.000     C          0.044854000000000005          
         C15       1.0000    0.73680   0.34260   0.35205   Biso      1.000     C          -0.20954899999999999          
         C16       1.0000    0.73890   0.82460   0.94129   Biso      1.000     C          0.5589029999999999  
         C17       1.0000    0.84200   0.45120   0.33076   Biso      1.000     C          0.215313  
         C18       1.0000    0.01800   0.32750   0.30780   Biso      1.000     C          0.189109  
         C19       1.0000    0.91400   0.21710   0.32745   Biso      1.000     C          -0.21993600000000002          
         C20       1.0000    0.65880   0.10150   0.36671   Biso      1.000     C          0.571588  
         C21       1.0000    0.90930   0.68950   0.34792   Biso      1.000     C          -0.115048           
         C22       1.0000    0.82960   0.77840   0.35320   Biso      1.000     C          -0.038627999999999996         
         C23       1.0000    0.67140   0.59950   0.33489   Biso      1.000     C          0.114446  
         C24       1.0000    0.24240   0.23710   0.31564   Biso      1.000     C          -0.10765699999999999          
         C25       1.0000    0.36410   0.24730   0.27501   Biso      1.000     C          -0.045334           
         C26       1.0000    0.24150   0.37230   0.22815   Biso      1.000     C          0.10359000000000002           
         C27       1.0000    0.12680   0.58520   0.47314   Biso      1.000     C          -0.017184           
         C28       1.0000    0.11320   0.45260   0.47081   Biso      1.000     C          -0.117282           
         C29       1.0000    0.01150   0.63040   0.50306   Biso      1.000     C          -0.119816           
         C30       1.0000    0.26110   0.67540   0.44129   Biso      1.000     C          0.5589029999999999  
         C31       1.0000    0.22830   0.27600   0.84880   Biso      1.000     C          0.044856  
         C32       1.0000    0.98350   0.44560   0.30821   Biso      1.000     C          -0.266498           
         C33       1.0000    0.22830   0.77600   0.65120   Biso      1.000     C          0.044854000000000005          
         C34       1.0000    0.26320   0.65740   0.64795   Biso      1.000     C          -0.20954899999999999          
         C35       1.0000    0.15800   0.54880   0.66924   Biso      1.000     C          0.21531199999999998           
         C36       1.0000    0.26110   0.17540   0.05871   Biso      1.000     C          0.5589029999999999  
         C37       1.0000    0.01150   0.13040   0.99694   Biso      1.000     C          -0.119806           
         C38       1.0000    0.11320   0.95260   0.02919   Biso      1.000     C          -0.117271           
         C39       1.0000    0.12680   0.08520   0.02686   Biso      1.000     C          -0.017187           
         C40       1.0000    0.24150   0.87230   0.27185   Biso      1.000     C          0.10359000000000002           
         C41       1.0000    0.36410   0.74730   0.22499   Biso      1.000     C          -0.045363           
         C42       1.0000    0.24240   0.73710   0.18436   Biso      1.000     C          -0.107628           
         C43       1.0000    0.67140   0.09950   0.16511   Biso      1.000     C          0.114446  
         C44       1.0000    0.82960   0.27840   0.14680   Biso      1.000     C          -0.038652           
         C45       1.0000    0.90930   0.18950   0.15208   Biso      1.000     C          -0.115024           
         C46       1.0000    0.65880   0.60150   0.13329   Biso      1.000     C          0.571588  
         C47       1.0000    0.91400   0.71710   0.17255   Biso      1.000     C          -0.219939           
         C48       1.0000    0.01800   0.82750   0.19220   Biso      1.000     C          0.189111  
         C49       1.0000    0.98350   0.94560   0.19179   Biso      1.000     C          -0.26650100000000004          
         C50       1.0000    0.84200   0.95120   0.16924   Biso      1.000     C          0.21531199999999998           
         C51       1.0000    0.73680   0.84260   0.14795   Biso      1.000     C          -0.20954699999999998          
         C52       1.0000    0.77170   0.72400   0.15120   Biso      1.000     C          0.044856  
         C53       1.0000    0.01650   0.55440   0.69179   Biso      1.000     C          -0.266498           
         C54       1.0000    0.98200   0.67250   0.69220   Biso      1.000     C          0.189109  
         C55       1.0000    0.08600   0.78290   0.67255   Biso      1.000     C          -0.21993600000000002          
         C56       1.0000    0.34120   0.89850   0.63329   Biso      1.000     C          0.571588  
         C57       1.0000    0.09070   0.31050   0.65208   Biso      1.000     C          -0.115048           
         C58       1.0000    0.17040   0.22160   0.64680   Biso      1.000     C          -0.038627999999999996         
         C59       1.0000    0.26320   0.15740   0.85205   Biso      1.000     C          -0.20954899999999999          
         C60       1.0000    0.32860   0.40050   0.66511   Biso      1.000     C          0.114446  
         C61       1.0000    0.63590   0.75270   0.72499   Biso      1.000     C          -0.045363           
         C62       1.0000    0.75850   0.62770   0.77185   Biso      1.000     C          0.10359000000000002           
         C63       1.0000    0.87320   0.41480   0.52686   Biso      1.000     C          -0.017185           
         C64       1.0000    0.88680   0.54740   0.52919   Biso      1.000     C          -0.117272           
         C65       1.0000    0.98850   0.36960   0.49694   Biso      1.000     C          -0.119806           
         C66       1.0000    0.73890   0.32460   0.55871   Biso      1.000     C          0.5589029999999999  
         C67       1.0000    0.75760   0.76290   0.68436   Biso      1.000     C          -0.107628           
         C68       1.0000    0.15800   0.04880   0.83076   Biso      1.000     C          0.21531399999999998           
         Cd1       1.0000    0.50825   0.83577   0.38166   Biso      1.000     Cd          0.885589  
         Cd2       1.0000    0.49175   0.66423   0.88166   Biso      1.000     Cd          0.88559   
         Cd3       1.0000    0.49175   0.16423   0.61834   Biso      1.000     Cd          0.885589  
         Cd4       1.0000    0.50825   0.33577   0.11834   Biso      1.000     Cd          0.885589  
         H1        1.0000    0.18970   0.92090   0.04870   Biso      1.000     H          0.116245  
         H2        1.0000    0.78400   0.31390   0.85570   Biso      1.000     H          0.145526  
         H3        1.0000    0.41780   0.96200   0.82820   Biso      1.000     H          0.11248   
         H4        1.0000    0.13040   0.63470   0.86160   Biso      1.000     H          0.121735  
         H5        1.0000    0.98740   0.79670   0.85160   Biso      1.000     H          0.124063  
         H6        1.0000    0.06080   0.36160   0.82640   Biso      1.000     H          0.1331    
         H7        1.0000    0.94690   0.98070   0.79380   Biso      1.000     H          0.142084  
         H8        1.0000    0.35630   0.15110   0.86840   Biso      1.000     H          0.139599  
         H9        1.0000    0.01950   0.71830   0.50530   Biso      1.000     H          0.114878  
         H10       1.0000    0.18970   0.42090   0.45130   Biso      1.000     H          0.116246  
         H11       1.0000    0.43780   0.20310   0.28280   Biso      1.000     H          0.11591300000000002           
         H12       1.0000    0.56220   0.29690   0.78280   Biso      1.000     H          0.115915  
         H13       1.0000    0.21600   0.18610   0.35570   Biso      1.000     H          0.145528  
         H14       1.0000    0.58220   0.53800   0.32820   Biso      1.000     H          0.11248   
         H15       1.0000    0.01950   0.21830   0.99470   Biso      1.000     H          0.11487699999999999           
         H16       1.0000    0.01260   0.70330   0.35160   Biso      1.000     H          0.12406500000000001           
         H17       1.0000    0.93920   0.13840   0.32640   Biso      1.000     H          0.1331    
         H18       1.0000    0.05310   0.51930   0.29380   Biso      1.000     H          0.142084  
         H19       1.0000    0.64370   0.34890   0.36840   Biso      1.000     H          0.139599  
         H20       1.0000    0.21090   0.43010   0.19840   Biso      1.000     H          0.109508  
         H21       1.0000    0.78910   0.06990   0.69840   Biso      1.000     H          0.109508  
         H22       1.0000    0.86960   0.86530   0.36160   Biso      1.000     H          0.121733  
         H23       1.0000    0.98050   0.78170   0.00530   Biso      1.000     H          0.114878  
         H24       1.0000    0.81030   0.07910   0.95130   Biso      1.000     H          0.116246  
         H25       1.0000    0.21090   0.93010   0.30160   Biso      1.000     H          0.109509  
         H26       1.0000    0.43780   0.70310   0.21720   Biso      1.000     H          0.115915  
         H27       1.0000    0.21600   0.68610   0.14430   Biso      1.000     H          0.145526  
         H28       1.0000    0.58220   0.03800   0.17180   Biso      1.000     H          0.11248   
         H29       1.0000    0.86960   0.36530   0.13840   Biso      1.000     H          0.121734  
         H30       1.0000    0.01260   0.20330   0.14840   Biso      1.000     H          0.124063  
         H31       1.0000    0.05310   0.01930   0.20620   Biso      1.000     H          0.142084  
         H32       1.0000    0.64370   0.84890   0.13160   Biso      1.000     H          0.1396    
         H33       1.0000    0.98050   0.28170   0.49470   Biso      1.000     H          0.11487699999999999           
         H34       1.0000    0.93920   0.63840   0.17360   Biso      1.000     H          0.1331    
         H35       1.0000    0.78910   0.56990   0.80160   Biso      1.000     H          0.109508  
         H36       1.0000    0.35630   0.65110   0.63160   Biso      1.000     H          0.139599  
         H37       1.0000    0.94690   0.48070   0.70620   Biso      1.000     H          0.142084  
         H38       1.0000    0.81030   0.57910   0.54870   Biso      1.000     H          0.116245  
         H39       1.0000    0.98740   0.29670   0.64840   Biso      1.000     H          0.12406500000000001           
         H40       1.0000    0.06080   0.86160   0.67360   Biso      1.000     H          0.1331    
         H41       1.0000    0.41780   0.46200   0.67180   Biso      1.000     H          0.11248   
         H42       1.0000    0.78400   0.81390   0.64430   Biso      1.000     H          0.145526  
         H43       1.0000    0.56220   0.79690   0.71720   Biso      1.000     H          0.115915  
         H44       1.0000    0.13040   0.13470   0.63840   Biso      1.000     H          0.121733  
         N1        1.0000    0.16540   0.81710   0.21401   Biso      1.000     N          0.013846  
         N2        1.0000    0.19180   0.42580   0.66401   Biso      1.000     N          0.017726  
         N3        1.0000    0.36490   0.83280   0.28016   Biso      1.000     N          -0.284596           
         N4        1.0000    0.80820   0.07420   0.16401   Biso      1.000     N          0.017724  
         N5        1.0000    0.68100   0.22240   0.15551   Biso      1.000     N          -0.277935           
         N6        1.0000    0.83460   0.68290   0.71401   Biso      1.000     N          0.013846  
         N7        1.0000    0.63510   0.66720   0.78016   Biso      1.000     N          -0.284596           
         N8        1.0000    0.31900   0.27760   0.65551   Biso      1.000     N          -0.277937           
         N9        1.0000    0.31900   0.77760   0.84449   Biso      1.000     N          -0.277935           
         N10       1.0000    0.63510   0.16720   0.71984   Biso      1.000     N          -0.284596           
         N11       1.0000    0.19180   0.92580   0.83599   Biso      1.000     N          0.017724  
         N12       1.0000    0.16540   0.31710   0.28599   Biso      1.000     N          0.013848  
         N13       1.0000    0.36490   0.33280   0.21984   Biso      1.000     N          -0.284599           
         N14       1.0000    0.80820   0.57420   0.33599   Biso      1.000     N          0.017726  
         N15       1.0000    0.68100   0.72240   0.34449   Biso      1.000     N          -0.277937           
         N16       1.0000    0.83460   0.18290   0.78599   Biso      1.000     N          0.013846  
         O1        1.0000    0.69910   0.50090   0.14389   Biso      1.000     O          -0.559293           
         O2        1.0000    0.53190   0.60340   0.11194   Biso      1.000     O          -0.5706   
         O3        1.0000    0.64090   0.37100   0.58728   Biso      1.000     O          -0.577015           
         O4        1.0000    0.72930   0.20630   0.55794   Biso      1.000     O          -0.563732           
         O5        1.0000    0.30090   0.99910   0.64389   Biso      1.000     O          -0.559294           
         O6        1.0000    0.46810   0.89660   0.61194   Biso      1.000     O          -0.5706   
         O7        1.0000    0.64090   0.87100   0.91272   Biso      1.000     O          -0.577015           
         O8        1.0000    0.46810   0.39660   0.88806   Biso      1.000     O          -0.5706   
         O9        1.0000    0.30090   0.49910   0.85611   Biso      1.000     O          -0.559293           
         O10       1.0000    0.35910   0.62900   0.41272   Biso      1.000     O          -0.577015           
         O11       1.0000    0.27070   0.79370   0.44206   Biso      1.000     O          -0.563732           
         O12       1.0000    0.69910   0.00090   0.35611   Biso      1.000     O          -0.559294           
         O13       1.0000    0.53190   0.10340   0.38806   Biso      1.000     O          -0.5706   
         O14       1.0000    0.27070   0.29370   0.05794   Biso      1.000     O          -0.563733           
         O15       1.0000    0.72930   0.70630   0.94206   Biso      1.000     O          -0.563732           
         O16       1.0000    0.35910   0.12900   0.08728   Biso      1.000     O          -0.577015 