
##########################################################################
#               Crystallographic Information Format file
#               Produced by PyCifRW module
#
#  This is a CIF file.  CIF has been adopted by the International
#  Union of Crystallography as the standard for data archiving and
#  transmission.
#
#  For information on this file format, follow the CIF links at
#  http://www.iucr.org
##########################################################################

data_image0

_cell_length_a                          8.045
_cell_length_b                          17.549
_cell_length_c                          18.014
_cell_angle_alpha                       90
_cell_angle_beta                        108.093
_cell_angle_gamma                       90
_symmetry_space_group_name_H-M          'P 1'
_symmetry_int_tables_number             1
loop_
  _symmetry_equiv_pos_as_xyz
         'x, y, z' 
loop_
  _atom_site_label
  _atom_site_occupancy
  _atom_site_fract_x
  _atom_site_fract_y
  _atom_site_fract_z
  _atom_site_thermal_displace_type
  _atom_site_B_iso_or_equiv
  _atom_site_type_symbol
  _atom_site_charge
         C1        1.0000    0.23100   0.26040   0.87170   Biso      1.000     C          0.576915  
         C2        1.0000    0.22950   0.76360   0.78750   Biso      1.000     C          0.087265  
         C3        1.0000    0.15880   0.96260   0.44700   Biso      1.000     C          -0.005371           
         C4        1.0000    0.15440   0.77910   0.89080   Biso      1.000     C          -0.047438           
         C5        1.0000    0.31420   0.81330   0.90300   Biso      1.000     C          -0.125415           
         C6        1.0000    0.65070   0.64940   0.85220   Biso      1.000     C          0.580191  
         C7        1.0000    0.45650   0.61340   0.93110   Biso      1.000     C          -0.266301           
         C8        1.0000    0.98350   0.97530   0.46670   Biso      1.000     C          -0.209753           
         C9        1.0000    0.51130   0.65740   0.06290   Biso      1.000     C          -0.256637           
         C10       1.0000    0.41200   0.61680   0.99950   Biso      1.000     C          0.274917  
         C11       1.0000    0.51530   0.82970   0.82080   Biso      1.000     C          -0.099932           
         C12       1.0000    0.60300   0.65190   0.92710   Biso      1.000     C          -0.001    
         C13       1.0000    0.65890   0.69540   0.05890   Biso      1.000     C          -0.002341           
         C14       1.0000    0.76900   0.73960   0.12830   Biso      1.000     C          0.576915  
         C15       1.0000    0.41200   0.88320   0.49950   Biso      1.000     C          0.274911  
         C16       1.0000    0.34110   0.30460   0.94110   Biso      1.000     C          -0.002344           
         C17       1.0000    0.29550   0.30730   0.00930   Biso      1.000     C          -0.191403           
         C18       1.0000    0.39700   0.34810   0.07290   Biso      1.000     C          -0.001    
         C19       1.0000    0.58800   0.38320   0.00050   Biso      1.000     C          0.274911  
         C20       1.0000    0.48870   0.34260   0.93710   Biso      1.000     C          -0.256628           
         C21       1.0000    0.54350   0.38660   0.06890   Biso      1.000     C          -0.266297           
         C22       1.0000    0.70450   0.69270   0.99070   Biso      1.000     C          -0.191402           
         C23       1.0000    0.03880   0.53720   0.26710   Biso      1.000     C          -0.123998           
         C24       1.0000    0.48340   0.90620   0.78410   Biso      1.000     C          -0.194101           
         C25       1.0000    0.79050   0.54470   0.32620   Biso      1.000     C          -0.091751           
         C26       1.0000    0.60300   0.84810   0.42710   Biso      1.000     C          -0.001002           
         C27       1.0000    0.45650   0.88660   0.43110   Biso      1.000     C          -0.266297           
         C28       1.0000    0.70450   0.80730   0.49070   Biso      1.000     C          -0.191404           
         C29       1.0000    0.65890   0.80460   0.55890   Biso      1.000     C          -0.002342           
         C30       1.0000    0.76900   0.76040   0.62830   Biso      1.000     C          0.576915  
         C31       1.0000    0.65070   0.85060   0.35220   Biso      1.000     C          0.580191  
         C32       1.0000    0.31420   0.68670   0.40300   Biso      1.000     C          -0.125418           
         C33       1.0000    0.15440   0.72090   0.39080   Biso      1.000     C          -0.047435           
         C34       1.0000    0.22950   0.73640   0.28750   Biso      1.000     C          0.087265  
         C35       1.0000    0.51530   0.67030   0.32080   Biso      1.000     C          -0.099931           
         C36       1.0000    0.48340   0.59380   0.28410   Biso      1.000     C          -0.194101           
         C37       1.0000    0.98350   0.52470   0.96670   Biso      1.000     C          -0.209753           
         C38       1.0000    0.15880   0.53740   0.94700   Biso      1.000     C          -0.005371           
         C39       1.0000    0.63520   0.56290   0.25870   Biso      1.000     C          -0.195935           
         C40       1.0000    0.03880   0.96280   0.76710   Biso      1.000     C          -0.123998           
         C41       1.0000    0.79050   0.95530   0.82620   Biso      1.000     C          -0.091751           
         C42       1.0000    0.12330   0.47990   0.24570   Biso      1.000     C          -0.046302           
         C43       1.0000    0.93480   0.07000   0.79150   Biso      1.000     C          0.097222  
         C44       1.0000    0.12330   0.02010   0.74570   Biso      1.000     C          -0.046302           
         C45       1.0000    0.93480   0.43000   0.29150   Biso      1.000     C          0.097222  
         C46       1.0000    0.63520   0.93710   0.75870   Biso      1.000     C          -0.195935           
         C47       1.0000    0.34930   0.35060   0.14780   Biso      1.000     C          0.580191  
         C48       1.0000    0.01650   0.02470   0.53330   Biso      1.000     C          -0.209753           
         C49       1.0000    0.51130   0.84260   0.56290   Biso      1.000     C          -0.256628           
         C50       1.0000    0.87670   0.97990   0.25430   Biso      1.000     C          -0.04633  
         C51       1.0000    0.39700   0.15190   0.57290   Biso      1.000     C          -0.001002           
         C52       1.0000    0.20950   0.04470   0.17380   Biso      1.000     C          -0.091752           
         C53       1.0000    0.36480   0.06290   0.24130   Biso      1.000     C          -0.195935           
         C54       1.0000    0.48470   0.32970   0.67920   Biso      1.000     C          -0.099931           
         C55       1.0000    0.23100   0.23960   0.37170   Biso      1.000     C          0.576915  
         C56       1.0000    0.77050   0.26360   0.71250   Biso      1.000     C          0.087265  
         C57       1.0000    0.34110   0.19540   0.44110   Biso      1.000     C          -0.002344           
         C58       1.0000    0.84560   0.27910   0.60920   Biso      1.000     C          -0.047439           
         C59       1.0000    0.29550   0.19270   0.50930   Biso      1.000     C          -0.191401           
         C60       1.0000    0.68580   0.18670   0.09700   Biso      1.000     C          -0.125418           
         C61       1.0000    0.68580   0.31330   0.59700   Biso      1.000     C          -0.125415           
         C62       1.0000    0.34930   0.14940   0.64780   Biso      1.000     C          0.580191  
         C63       1.0000    0.54350   0.11340   0.56890   Biso      1.000     C          -0.266298           
         C64       1.0000    0.06520   0.93000   0.20850   Biso      1.000     C          0.097222  
         C65       1.0000    0.48870   0.15740   0.43710   Biso      1.000     C          -0.256635           
         C66       1.0000    0.51660   0.09380   0.21590   Biso      1.000     C          -0.194101           
         C67       1.0000    0.36480   0.43710   0.74130   Biso      1.000     C          -0.195935           
         C68       1.0000    0.51660   0.40620   0.71590   Biso      1.000     C          -0.194101           
         C69       1.0000    0.20950   0.45530   0.67380   Biso      1.000     C          -0.091751           
         C70       1.0000    0.01650   0.47530   0.03330   Biso      1.000     C          -0.209753           
         C71       1.0000    0.84120   0.03740   0.55300   Biso      1.000     C          -0.005371           
         C72       1.0000    0.84560   0.22090   0.10920   Biso      1.000     C          -0.047435           
         C73       1.0000    0.96120   0.46280   0.73290   Biso      1.000     C          -0.123998           
         C74       1.0000    0.84120   0.46260   0.05300   Biso      1.000     C          -0.005371           
         C75       1.0000    0.77050   0.23640   0.21250   Biso      1.000     C          0.087265  
         C76       1.0000    0.58800   0.11680   0.50050   Biso      1.000     C          0.274917  
         C77       1.0000    0.87670   0.52010   0.75430   Biso      1.000     C          -0.046302           
         C78       1.0000    0.48470   0.17030   0.17920   Biso      1.000     C          -0.099931           
         C79       1.0000    0.96120   0.03720   0.23290   Biso      1.000     C          -0.123971           
         C80       1.0000    0.06520   0.57000   0.70850   Biso      1.000     C          0.097222  
         H1        1.0000    0.16000   0.09120   0.14690   Biso      1.000     H          0.108744  
         H2        1.0000    0.09220   0.72310   0.42650   Biso      1.000     H          0.130123  
         H3        1.0000    0.86350   0.43600   0.10240   Biso      1.000     H          0.071814  
         H4        1.0000    0.13510   0.89470   0.19370   Biso      1.000     H          0.11291   
         H5        1.0000    0.37980   0.59620   0.23870   Biso      1.000     H          0.11241   
         H6        1.0000    0.38860   0.91450   0.38850   Biso      1.000     H          0.125291  
         H7        1.0000    0.78600   0.51110   0.05650   Biso      1.000     H          0.083228  
         H8        1.0000    0.22860   0.75090   0.23770   Biso      1.000     H          0.116281  
         H9        1.0000    0.37940   0.66080   0.44750   Biso      1.000     H          0.135749  
         H10       1.0000    0.54720   0.70560   0.28600   Biso      1.000     H          0.124466  
         H11       1.0000    0.94350   0.08900   0.23830   Biso      1.000     H          0.128431  
         H12       1.0000    0.61180   0.66760   0.36900   Biso      1.000     H          0.112706  
         H13       1.0000    0.45960   0.55830   0.32080   Biso      1.000     H          0.097861  
         H14       1.0000    0.24350   0.01230   0.13730   Biso      1.000     H          0.113638  
         H15       1.0000    0.62060   0.16080   0.05250   Biso      1.000     H          0.135749  
         H16       1.0000    0.59730   0.51730   0.22770   Biso      1.000     H          0.122152  
         H17       1.0000    0.61140   0.41450   0.11150   Biso      1.000     H          0.125291  
         H18       1.0000    0.52040   0.34060   0.89170   Biso      1.000     H          0.139203  
         H19       1.0000    0.90780   0.22310   0.07350   Biso      1.000     H          0.130123  
         H20       1.0000    0.19670   0.28150   0.01230   Biso      1.000     H          0.11995   
         H21       1.0000    0.77140   0.25090   0.26230   Biso      1.000     H          0.116281  
         H22       1.0000    0.89650   0.99800   0.42230   Biso      1.000     H          0.106228  
         H23       1.0000    0.93880   0.92680   0.47800   Biso      1.000     H          0.112068  
         H24       1.0000    0.38820   0.16760   0.13100   Biso      1.000     H          0.112707  
         H25       1.0000    0.45280   0.20560   0.21400   Biso      1.000     H          0.124466  
         H26       1.0000    0.54040   0.05830   0.17920   Biso      1.000     H          0.097862  
         H27       1.0000    0.13650   0.93600   0.39760   Biso      1.000     H          0.071814  
         H28       1.0000    0.62020   0.09620   0.26130   Biso      1.000     H          0.11241   
         H29       1.0000    0.21400   0.01110   0.44350   Biso      1.000     H          0.083228  
         H30       1.0000    0.33260   0.10050   0.27390   Biso      1.000     H          0.110271  
         H31       1.0000    0.05650   0.58900   0.26170   Biso      1.000     H          0.128433  
         H32       1.0000    0.40270   0.01730   0.27230   Biso      1.000     H          0.122151  
         H33       1.0000    0.75650   0.51230   0.36270   Biso      1.000     H          0.113637  
         H34       1.0000    0.84000   0.59120   0.35310   Biso      1.000     H          0.108744  
         H35       1.0000    0.86490   0.39470   0.30630   Biso      1.000     H          0.11291   
         H36       1.0000    0.78720   0.98540   0.27640   Biso      1.000     H          0.119311  
         H37       1.0000    0.21280   0.48540   0.22360   Biso      1.000     H          0.11931   
         H38       1.0000    0.66740   0.60050   0.22610   Biso      1.000     H          0.110271  
         H39       1.0000    0.89650   0.50200   0.92230   Biso      1.000     H          0.106228  
         H40       1.0000    0.10350   0.49800   0.07770   Biso      1.000     H          0.106228  
         H41       1.0000    0.80330   0.78150   0.48770   Biso      1.000     H          0.11995   
         H42       1.0000    0.22860   0.74910   0.73770   Biso      1.000     H          0.116281  
         H43       1.0000    0.09220   0.77690   0.92650   Biso      1.000     H          0.130123  
         H44       1.0000    0.37940   0.83920   0.94750   Biso      1.000     H          0.135749  
         H45       1.0000    0.38860   0.58550   0.88850   Biso      1.000     H          0.125291  
         H46       1.0000    0.47960   0.65940   0.10830   Biso      1.000     H          0.139204  
         H47       1.0000    0.80330   0.71850   0.98770   Biso      1.000     H          0.11995   
         H48       1.0000    0.38820   0.33240   0.63100   Biso      1.000     H          0.112706  
         H49       1.0000    0.45280   0.29440   0.71400   Biso      1.000     H          0.124466  
         H50       1.0000    0.54040   0.44170   0.67920   Biso      1.000     H          0.097861  
         H51       1.0000    0.61180   0.83240   0.86900   Biso      1.000     H          0.112706  
         H52       1.0000    0.62020   0.40380   0.76130   Biso      1.000     H          0.11241   
         H53       1.0000    0.40270   0.48270   0.77230   Biso      1.000     H          0.122151  
         H54       1.0000    0.78720   0.51460   0.77640   Biso      1.000     H          0.11931   
         H55       1.0000    0.13510   0.60530   0.69370   Biso      1.000     H          0.11291   
         H56       1.0000    0.16000   0.40880   0.64690   Biso      1.000     H          0.108744  
         H57       1.0000    0.47960   0.84060   0.60830   Biso      1.000     H          0.139203  
         H58       1.0000    0.24350   0.48770   0.63730   Biso      1.000     H          0.113638  
         H59       1.0000    0.94350   0.41100   0.73830   Biso      1.000     H          0.128433  
         H60       1.0000    0.78600   0.98890   0.55650   Biso      1.000     H          0.083228  
         H61       1.0000    0.86350   0.06400   0.60240   Biso      1.000     H          0.071814  
         H62       1.0000    0.33260   0.39950   0.77390   Biso      1.000     H          0.110271  
         H63       1.0000    0.54720   0.79440   0.78600   Biso      1.000     H          0.124466  
         H64       1.0000    0.45960   0.94170   0.82080   Biso      1.000     H          0.097861  
         H65       1.0000    0.37980   0.90380   0.73870   Biso      1.000     H          0.11241   
         H66       1.0000    0.19670   0.21850   0.51230   Biso      1.000     H          0.11995   
         H67       1.0000    0.52040   0.15940   0.39170   Biso      1.000     H          0.139204  
         H68       1.0000    0.61140   0.08550   0.61150   Biso      1.000     H          0.125291  
         H69       1.0000    0.62060   0.33920   0.55250   Biso      1.000     H          0.135749  
         H70       1.0000    0.90780   0.27690   0.57350   Biso      1.000     H          0.130123  
         H71       1.0000    0.77140   0.24910   0.76230   Biso      1.000     H          0.116281  
         H72       1.0000    0.06120   0.07320   0.52200   Biso      1.000     H          0.112068  
         H73       1.0000    0.93880   0.57320   0.97800   Biso      1.000     H          0.112068  
         H74       1.0000    0.06120   0.42680   0.02200   Biso      1.000     H          0.112068  
         H75       1.0000    0.21400   0.48890   0.94350   Biso      1.000     H          0.083228  
         H76       1.0000    0.05650   0.91100   0.76170   Biso      1.000     H          0.128433  
         H77       1.0000    0.75650   0.98770   0.86270   Biso      1.000     H          0.113638  
         H78       1.0000    0.84000   0.90880   0.85310   Biso      1.000     H          0.108744  
         H79       1.0000    0.86490   0.10530   0.80630   Biso      1.000     H          0.11291   
         H80       1.0000    0.21280   0.01460   0.72360   Biso      1.000     H          0.11931   
         H81       1.0000    0.59730   0.98270   0.72770   Biso      1.000     H          0.122151  
         H82       1.0000    0.66740   0.89950   0.72610   Biso      1.000     H          0.110271  
         H83       1.0000    0.13650   0.56400   0.89760   Biso      1.000     H          0.071814  
         H84       1.0000    0.10350   0.00200   0.57770   Biso      1.000     H          0.106228  
         N1        1.0000    0.07800   0.49490   0.70180   Biso      1.000     N          0.064134  
         N2        1.0000    0.94220   0.58800   0.73850   Biso      1.000     N          -0.266636           
         N3        1.0000    0.64210   0.30170   0.66260   Biso      1.000     N          0.073957  
         N4        1.0000    0.89750   0.24900   0.68260   Biso      1.000     N          -0.277976           
         N5        1.0000    0.94220   0.91200   0.23850   Biso      1.000     N          -0.266634           
         N6        1.0000    0.92200   0.99490   0.79820   Biso      1.000     N          0.064134  
         N7        1.0000    0.10250   0.75100   0.31740   Biso      1.000     N          -0.277976           
         N8        1.0000    0.35790   0.69830   0.33740   Biso      1.000     N          0.073957  
         N9        1.0000    0.05780   0.41200   0.26150   Biso      1.000     N          -0.266637           
         N10       1.0000    0.92200   0.50510   0.29820   Biso      1.000     N          0.064134  
         N11       1.0000    0.89750   0.25100   0.18260   Biso      1.000     N          -0.277976           
         N12       1.0000    0.07800   0.00510   0.20180   Biso      1.000     N          0.064132  
         N13       1.0000    0.64210   0.19830   0.16260   Biso      1.000     N          0.073957  
         N14       1.0000    0.35790   0.80170   0.83740   Biso      1.000     N          0.073957  
         N15       1.0000    0.10250   0.74900   0.81740   Biso      1.000     N          -0.277976           
         N16       1.0000    0.05780   0.08800   0.76150   Biso      1.000     N          -0.266636           
         O1        1.0000    0.26860   0.91770   0.50970   Biso      1.000     O          -0.206485           
         O2        1.0000    0.28670   0.24750   0.31380   Biso      1.000     O          -0.571271           
         O3        1.0000    0.09140   0.26770   0.37250   Biso      1.000     O          -0.595423           
         O4        1.0000    0.73140   0.08230   0.49030   Biso      1.000     O          -0.206486           
         O5        1.0000    0.44560   0.11790   0.70590   Biso      1.000     O          -0.581407           
         O6        1.0000    0.20670   0.18300   0.64450   Biso      1.000     O          -0.569616           
         O7        1.0000    0.71330   0.75250   0.68620   Biso      1.000     O          -0.571271           
         O8        1.0000    0.90860   0.73230   0.62750   Biso      1.000     O          -0.595422           
         O9        1.0000    0.55440   0.88210   0.29410   Biso      1.000     O          -0.581407           
         O10       1.0000    0.55440   0.61790   0.79410   Biso      1.000     O          -0.581407           
         O11       1.0000    0.26860   0.58230   0.00970   Biso      1.000     O          -0.206486           
         O12       1.0000    0.20670   0.31700   0.14450   Biso      1.000     O          -0.569616           
         O13       1.0000    0.44560   0.38210   0.20590   Biso      1.000     O          -0.581407           
         O14       1.0000    0.73140   0.41770   0.99030   Biso      1.000     O          -0.206485           
         O15       1.0000    0.09140   0.23230   0.87250   Biso      1.000     O          -0.595422           
         O16       1.0000    0.28670   0.25250   0.81380   Biso      1.000     O          -0.571271           
         O17       1.0000    0.71330   0.74750   0.18620   Biso      1.000     O          -0.571271           
         O18       1.0000    0.90860   0.76770   0.12750   Biso      1.000     O          -0.595423           
         O19       1.0000    0.79330   0.68300   0.85550   Biso      1.000     O          -0.569616           
         O20       1.0000    0.79330   0.81700   0.35550   Biso      1.000     O          -0.569616           
         Zn1       1.0000    0.88101   0.80869   0.26659   Biso      1.000     Zn          0.769052  
         Zn2       1.0000    0.11899   0.30869   0.23341   Biso      1.000     Zn          0.769052  
         Zn3       1.0000    0.88101   0.69131   0.76659   Biso      1.000     Zn          0.769052  
         Zn4       1.0000    0.11899   0.19131   0.73341   Biso      1.000     Zn          0.769052 