
##########################################################################
#               Crystallographic Information Format file
#               Produced by PyCifRW module
#
#  This is a CIF file.  CIF has been adopted by the International
#  Union of Crystallography as the standard for data archiving and
#  transmission.
#
#  For information on this file format, follow the CIF links at
#  http://www.iucr.org
##########################################################################

data_image0

_cell_length_a                          8.0319
_cell_length_b                          17.9407
_cell_length_c                          17.9318
_cell_angle_alpha                       90
_cell_angle_beta                        108.644
_cell_angle_gamma                       90
_symmetry_space_group_name_H-M          'P 1'
_symmetry_int_tables_number             1
loop_
  _symmetry_equiv_pos_as_xyz
         'x, y, z' 
loop_
  _atom_site_label
  _atom_site_occupancy
  _atom_site_fract_x
  _atom_site_fract_y
  _atom_site_fract_z
  _atom_site_thermal_displace_type
  _atom_site_B_iso_or_equiv
  _atom_site_type_symbol
  _atom_site_charge
         C1        1.0000    0.34960   0.80270   0.94160   Biso      1.000     C          -0.003825           
         C2        1.0000    0.21910   0.54320   0.17800   Biso      1.000     C          -0.077663           
         C3        1.0000    0.87850   0.47920   0.25710   Biso      1.000     C          -0.046688           
         C4        1.0000    0.97160   0.53610   0.24120   Biso      1.000     C          -0.125957           
         C5        1.0000    0.65210   0.34960   0.35330   Biso      1.000     C          0.57559   
         C6        1.0000    0.07870   0.43040   0.22070   Biso      1.000     C          0.096663  
         C7        1.0000    0.75560   0.25850   0.62820   Biso      1.000     C          0.563213  
         C8        1.0000    0.97990   0.46920   0.47030   Biso      1.000     C          -0.254547           
         C9        1.0000    0.16000   0.03510   0.94960   Biso      1.000     C          0.000567  
         C10       1.0000    0.50240   0.15870   0.06120   Biso      1.000     C          -0.251085           
         C11       1.0000    0.51560   0.90200   0.71760   Biso      1.000     C          -0.198742           
         C12       1.0000    0.40780   0.11660   0.99860   Biso      1.000     C          0.272581  
         C13       1.0000    0.60240   0.15300   0.92690   Biso      1.000     C          0.000373  
         C14       1.0000    0.69950   0.19430   0.99080   Biso      1.000     C          -0.184325           
         C15       1.0000    0.65040   0.19730   0.05840   Biso      1.000     C          -0.003824           
         C16       1.0000    0.50240   0.34130   0.56120   Biso      1.000     C          -0.251085           
         C17       1.0000    0.30050   0.80570   0.00920   Biso      1.000     C          -0.184327           
         C18       1.0000    0.39760   0.84700   0.07310   Biso      1.000     C          0.000375  
         C19       1.0000    0.54520   0.88680   0.07000   Biso      1.000     C          -0.261632           
         C20       1.0000    0.59220   0.88340   0.00140   Biso      1.000     C          0.272571  
         C21       1.0000    0.49760   0.84130   0.93880   Biso      1.000     C          -0.251074           
         C22       1.0000    0.45480   0.11320   0.93000   Biso      1.000     C          -0.261633           
         C23       1.0000    0.84000   0.96490   0.05040   Biso      1.000     C          0.000567  
         C24       1.0000    0.35900   0.56260   0.24330   Biso      1.000     C          -0.197637           
         C25       1.0000    0.77630   0.73520   0.21580   Biso      1.000     C          0.085619  
         C26       1.0000    0.40780   0.38340   0.49860   Biso      1.000     C          0.272581  
         C27       1.0000    0.45480   0.38680   0.43000   Biso      1.000     C          -0.261634           
         C28       1.0000    0.60240   0.34700   0.42690   Biso      1.000     C          0.000374  
         C29       1.0000    0.69950   0.30570   0.49080   Biso      1.000     C          -0.184325           
         C30       1.0000    0.65040   0.30270   0.55840   Biso      1.000     C          -0.003824           
         C31       1.0000    0.07870   0.06960   0.72070   Biso      1.000     C          0.096662  
         C32       1.0000    0.97160   0.96390   0.74120   Biso      1.000     C          -0.125979           
         C33       1.0000    0.87850   0.02080   0.75710   Biso      1.000     C          -0.046664           
         C34       1.0000    0.21910   0.95680   0.67800   Biso      1.000     C          -0.077662           
         C35       1.0000    0.48780   0.83030   0.68080   Biso      1.000     C          -0.089306           
         C36       1.0000    0.35900   0.93740   0.74330   Biso      1.000     C          -0.197637           
         C37       1.0000    0.75560   0.24150   0.12820   Biso      1.000     C          0.563214  
         C38       1.0000    0.65210   0.15040   0.85330   Biso      1.000     C          0.575589  
         C39       1.0000    0.77630   0.76480   0.71580   Biso      1.000     C          0.085619  
         C40       1.0000    0.51560   0.59800   0.21760   Biso      1.000     C          -0.198742           
         C41       1.0000    0.85080   0.77810   0.61200   Biso      1.000     C          -0.046668           
         C42       1.0000    0.48780   0.66970   0.18080   Biso      1.000     C          -0.089306           
         C43       1.0000    0.69180   0.68910   0.09950   Biso      1.000     C          -0.127624           
         C44       1.0000    0.69180   0.81090   0.59950   Biso      1.000     C          -0.12761  
         C45       1.0000    0.85080   0.72190   0.11200   Biso      1.000     C          -0.046654           
         C46       1.0000    0.97990   0.03080   0.97030   Biso      1.000     C          -0.254546           
         C47       1.0000    0.02010   0.53080   0.52970   Biso      1.000     C          -0.254547           
         C48       1.0000    0.16000   0.46490   0.44960   Biso      1.000     C          0.000568  
         C49       1.0000    0.34790   0.65040   0.64670   Biso      1.000     C          0.575589  
         C50       1.0000    0.78090   0.04320   0.32200   Biso      1.000     C          -0.077663           
         C51       1.0000    0.12150   0.97920   0.24290   Biso      1.000     C          -0.046688           
         C52       1.0000    0.02840   0.03610   0.25880   Biso      1.000     C          -0.125957           
         C53       1.0000    0.22370   0.26480   0.78420   Biso      1.000     C          0.085619  
         C54       1.0000    0.24440   0.74150   0.37180   Biso      1.000     C          0.563214  
         C55       1.0000    0.14920   0.27810   0.88800   Biso      1.000     C          -0.046668           
         C56       1.0000    0.84000   0.53510   0.55040   Biso      1.000     C          0.000568  
         C57       1.0000    0.49760   0.65870   0.43880   Biso      1.000     C          -0.251085           
         C58       1.0000    0.59220   0.61660   0.50140   Biso      1.000     C          0.272582  
         C59       1.0000    0.30820   0.31090   0.90050   Biso      1.000     C          -0.12761  
         C60       1.0000    0.54520   0.61320   0.57000   Biso      1.000     C          -0.261633           
         C61       1.0000    0.39760   0.65300   0.57310   Biso      1.000     C          0.000374  
         C62       1.0000    0.30050   0.69430   0.50920   Biso      1.000     C          -0.184325           
         C63       1.0000    0.34960   0.69730   0.44160   Biso      1.000     C          -0.003824           
         C64       1.0000    0.51220   0.33030   0.81920   Biso      1.000     C          -0.089306           
         C65       1.0000    0.48440   0.40200   0.78240   Biso      1.000     C          -0.198743           
         C66       1.0000    0.34790   0.84960   0.14670   Biso      1.000     C          0.575591  
         C67       1.0000    0.24440   0.75850   0.87180   Biso      1.000     C          0.563214  
         C68       1.0000    0.02010   0.96920   0.02970   Biso      1.000     C          -0.254546           
         C69       1.0000    0.64100   0.43740   0.75670   Biso      1.000     C          -0.197638           
         C70       1.0000    0.64100   0.06260   0.25670   Biso      1.000     C          -0.197637           
         C71       1.0000    0.92130   0.93040   0.27930   Biso      1.000     C          0.096663  
         C72       1.0000    0.02840   0.46390   0.75880   Biso      1.000     C          -0.125979           
         C73       1.0000    0.78090   0.45680   0.82200   Biso      1.000     C          -0.077661           
         C74       1.0000    0.22370   0.23520   0.28420   Biso      1.000     C          0.085619  
         C75       1.0000    0.92130   0.56960   0.77930   Biso      1.000     C          0.096663  
         C76       1.0000    0.48440   0.09800   0.28240   Biso      1.000     C          -0.198743           
         C77       1.0000    0.51220   0.16970   0.31920   Biso      1.000     C          -0.089306           
         C78       1.0000    0.30820   0.18910   0.40050   Biso      1.000     C          -0.127625           
         C79       1.0000    0.12150   0.52080   0.74290   Biso      1.000     C          -0.046664           
         C80       1.0000    0.14920   0.22190   0.38800   Biso      1.000     C          -0.046653           
         Co1       1.0000    0.87315   0.30998   0.26356   Biso      1.000     Co          0.794666  
         Co2       1.0000    0.87315   0.19002   0.76356   Biso      1.000     Co          0.79466   
         Co3       1.0000    0.12685   0.69002   0.73644   Biso      1.000     Co          0.794664  
         Co4       1.0000    0.12685   0.80998   0.23644   Biso      1.000     Co          0.794665  
         H1        1.0000    0.39220   0.83350   0.63150   Biso      1.000     H          0.109156  
         H2        1.0000    0.25580   0.99010   0.64370   Biso      1.000     H          0.118047  
         H3        1.0000    0.59860   0.48130   0.72470   Biso      1.000     H          0.122374  
         H4        1.0000    0.78270   0.01570   0.77520   Biso      1.000     H          0.117159  
         H5        1.0000    0.54620   0.29520   0.78550   Biso      1.000     H          0.121371  
         H6        1.0000    0.95510   0.91320   0.74720   Biso      1.000     H          0.131519  
         H7        1.0000    0.60780   0.33350   0.86850   Biso      1.000     H          0.109156  
         H8        1.0000    0.15450   0.10420   0.71030   Biso      1.000     H          0.110019  
         H9        1.0000    0.53230   0.83850   0.89410   Biso      1.000     H          0.139953  
         H10       1.0000    0.38180   0.39860   0.73580   Biso      1.000     H          0.109627  
         H11       1.0000    0.45610   0.43660   0.81810   Biso      1.000     H          0.096617  
         H12       1.0000    0.21660   0.51300   0.45160   Biso      1.000     H          0.0824    
         H13       1.0000    0.83550   0.41300   0.85160   Biso      1.000     H          0.112699  
         H14       1.0000    0.78340   0.01300   0.04840   Biso      1.000     H          0.0824    
         H15       1.0000    0.13130   0.44380   0.39720   Biso      1.000     H          0.071247  
         H16       1.0000    0.86870   0.94380   0.10280   Biso      1.000     H          0.071248  
         H17       1.0000    0.16450   0.91300   0.64840   Biso      1.000     H          0.1127    
         H18       1.0000    0.45380   0.79520   0.71450   Biso      1.000     H          0.121371  
         H19       1.0000    0.54390   0.93660   0.68190   Biso      1.000     H          0.096618  
         H20       1.0000    0.40140   0.98130   0.77530   Biso      1.000     H          0.122374  
         H21       1.0000    0.22230   0.25150   0.73380   Biso      1.000     H          0.114584  
         H22       1.0000    0.62560   0.83500   0.55370   Biso      1.000     H          0.131329  
         H23       1.0000    0.21730   0.51570   0.72480   Biso      1.000     H          0.117159  
         H24       1.0000    0.67990   0.40170   0.72520   Biso      1.000     H          0.1101    
         H25       1.0000    0.08700   0.27620   0.92360   Biso      1.000     H          0.130016  
         H26       1.0000    0.91300   0.77620   0.57640   Biso      1.000     H          0.130015  
         H27       1.0000    0.04490   0.41320   0.75280   Biso      1.000     H          0.131518  
         H28       1.0000    0.61820   0.89860   0.76420   Biso      1.000     H          0.109626  
         H29       1.0000    0.77770   0.75150   0.76620   Biso      1.000     H          0.114583  
         H30       1.0000    0.20190   0.77970   0.01140   Biso      1.000     H          0.122121  
         H31       1.0000    0.74420   0.49010   0.85630   Biso      1.000     H          0.118048  
         H32       1.0000    0.32010   0.90170   0.77480   Biso      1.000     H          0.1101    
         H33       1.0000    0.84550   0.60420   0.78970   Biso      1.000     H          0.110018  
         H34       1.0000    0.37440   0.33500   0.94630   Biso      1.000     H          0.131328  
         H35       1.0000    0.61080   0.91500   0.11290   Biso      1.000     H          0.125697  
         H36       1.0000    0.98140   0.43310   0.51080   Biso      1.000     H          0.116476  
         H37       1.0000    0.86570   0.47310   0.43020   Biso      1.000     H          0.129775  
         H38       1.0000    0.98140   0.06690   0.01080   Biso      1.000     H          0.116477  
         H39       1.0000    0.38920   0.41500   0.38710   Biso      1.000     H          0.125698  
         H40       1.0000    0.38920   0.08500   0.88710   Biso      1.000     H          0.125698  
         H41       1.0000    0.79810   0.22030   0.98860   Biso      1.000     H          0.12212   
         H42       1.0000    0.46770   0.33850   0.60590   Biso      1.000     H          0.139952  
         H43       1.0000    0.01860   0.56690   0.48920   Biso      1.000     H          0.116476  
         H44       1.0000    0.13430   0.52690   0.56980   Biso      1.000     H          0.129775  
         H45       1.0000    0.45610   0.06340   0.31810   Biso      1.000     H          0.096618  
         H46       1.0000    0.38180   0.10140   0.23580   Biso      1.000     H          0.109627  
         H47       1.0000    0.60780   0.16650   0.36850   Biso      1.000     H          0.109156  
         H48       1.0000    0.54620   0.20480   0.28550   Biso      1.000     H          0.121371  
         H49       1.0000    0.37440   0.16500   0.44630   Biso      1.000     H          0.13133   
         H50       1.0000    0.08700   0.22380   0.42360   Biso      1.000     H          0.130014  
         H51       1.0000    0.46770   0.16150   0.10590   Biso      1.000     H          0.139953  
         H52       1.0000    0.22230   0.24850   0.23380   Biso      1.000     H          0.114583  
         H53       1.0000    0.59860   0.01870   0.22470   Biso      1.000     H          0.122374  
         H54       1.0000    0.83550   0.08700   0.35160   Biso      1.000     H          0.112699  
         H55       1.0000    0.74420   0.00990   0.35630   Biso      1.000     H          0.118048  
         H56       1.0000    0.21730   0.98430   0.22480   Biso      1.000     H          0.11716   
         H57       1.0000    0.04490   0.08680   0.25280   Biso      1.000     H          0.131516  
         H58       1.0000    0.84550   0.89580   0.28970   Biso      1.000     H          0.110018  
         H59       1.0000    0.78340   0.48700   0.54840   Biso      1.000     H          0.0824    
         H60       1.0000    0.86870   0.55620   0.60280   Biso      1.000     H          0.071247  
         H61       1.0000    0.53230   0.66150   0.39410   Biso      1.000     H          0.139953  
         H62       1.0000    0.61080   0.58500   0.61290   Biso      1.000     H          0.125698  
         H63       1.0000    0.20190   0.72030   0.51140   Biso      1.000     H          0.12212   
         H64       1.0000    0.67990   0.09830   0.22520   Biso      1.000     H          0.1101    
         H65       1.0000    0.13130   0.05620   0.89720   Biso      1.000     H          0.071248  
         H66       1.0000    0.01860   0.93310   0.98920   Biso      1.000     H          0.116476  
         H67       1.0000    0.15450   0.39580   0.21030   Biso      1.000     H          0.110018  
         H68       1.0000    0.79810   0.27970   0.48860   Biso      1.000     H          0.12212   
         H69       1.0000    0.13430   0.97310   0.06980   Biso      1.000     H          0.129775  
         H70       1.0000    0.86570   0.02690   0.93020   Biso      1.000     H          0.129775  
         H71       1.0000    0.54390   0.56340   0.18190   Biso      1.000     H          0.096618  
         H72       1.0000    0.61820   0.60140   0.26420   Biso      1.000     H          0.109626  
         H73       1.0000    0.39220   0.66650   0.13150   Biso      1.000     H          0.109156  
         H74       1.0000    0.45380   0.70480   0.21450   Biso      1.000     H          0.121371  
         H75       1.0000    0.21660   0.98700   0.95160   Biso      1.000     H          0.082401  
         H76       1.0000    0.91300   0.72380   0.07640   Biso      1.000     H          0.130014  
         H77       1.0000    0.77770   0.74850   0.26620   Biso      1.000     H          0.114582  
         H78       1.0000    0.32010   0.59830   0.27480   Biso      1.000     H          0.1101    
         H79       1.0000    0.40140   0.51870   0.27530   Biso      1.000     H          0.122374  
         H80       1.0000    0.62560   0.66500   0.05370   Biso      1.000     H          0.131329  
         H81       1.0000    0.95510   0.58680   0.24720   Biso      1.000     H          0.131516  
         H82       1.0000    0.16450   0.58700   0.14840   Biso      1.000     H          0.112699  
         H83       1.0000    0.78270   0.48430   0.27520   Biso      1.000     H          0.11716   
         H84       1.0000    0.25580   0.50990   0.14370   Biso      1.000     H          0.118048  
         N1        1.0000    0.90350   0.75160   0.18620   Biso      1.000     N          -0.303156           
         N2        1.0000    0.05410   0.91340   0.25730   Biso      1.000     N          -0.290355           
         N3        1.0000    0.90620   0.00390   0.28540   Biso      1.000     N          0.049278  
         N4        1.0000    0.09650   0.25160   0.31380   Biso      1.000     N          -0.303156           
         N5        1.0000    0.35280   0.19770   0.33470   Biso      1.000     N          0.072     
         N6        1.0000    0.64720   0.80230   0.66530   Biso      1.000     N          0.071998  
         N7        1.0000    0.90350   0.74840   0.68620   Biso      1.000     N          -0.303154           
         N8        1.0000    0.09380   0.99610   0.71460   Biso      1.000     N          0.049279  
         N9        1.0000    0.94590   0.08660   0.74270   Biso      1.000     N          -0.290358           
         N10       1.0000    0.64720   0.69770   0.16530   Biso      1.000     N          0.072     
         N11       1.0000    0.35280   0.30230   0.83470   Biso      1.000     N          0.071998  
         N12       1.0000    0.05410   0.58660   0.75730   Biso      1.000     N          -0.290359           
         N13       1.0000    0.09380   0.50390   0.21460   Biso      1.000     N          0.049277  
         N14       1.0000    0.94590   0.41340   0.24270   Biso      1.000     N          -0.290356           
         N15       1.0000    0.90620   0.49610   0.78540   Biso      1.000     N          0.049279  
         N16       1.0000    0.09650   0.24840   0.81380   Biso      1.000     N          -0.303153           
         O1        1.0000    0.10370   0.72880   0.87000   Biso      1.000     O          -0.577337           
         O2        1.0000    0.30520   0.74940   0.31503   Biso      1.000     O          -0.558853           
         O3        1.0000    0.10370   0.77120   0.37000   Biso      1.000     O          -0.577337           
         O4        1.0000    0.73170   0.57990   0.49060   Biso      1.000     O          -0.193629           
         O5        1.0000    0.20650   0.68454   0.64387   Biso      1.000     O          -0.562334           
         O6        1.0000    0.44110   0.61710   0.70530   Biso      1.000     O          -0.581486           
         O7        1.0000    0.55890   0.11710   0.79470   Biso      1.000     O          -0.581485           
         O8        1.0000    0.79350   0.18454   0.85613   Biso      1.000     O          -0.562333           
         O9        1.0000    0.89630   0.27120   0.13000   Biso      1.000     O          -0.577337           
         O10       1.0000    0.73170   0.92010   0.99060   Biso      1.000     O          -0.193628           
         O11       1.0000    0.69480   0.24940   0.18497   Biso      1.000     O          -0.558853           
         O12       1.0000    0.55890   0.38290   0.29470   Biso      1.000     O          -0.581486           
         O13       1.0000    0.79350   0.31546   0.35613   Biso      1.000     O          -0.562335           
         O14       1.0000    0.26830   0.42010   0.50940   Biso      1.000     O          -0.193629           
         O15       1.0000    0.89630   0.22880   0.63000   Biso      1.000     O          -0.577336           
         O16       1.0000    0.44110   0.88290   0.20530   Biso      1.000     O          -0.581486           
         O17       1.0000    0.20650   0.81546   0.14387   Biso      1.000     O          -0.562335           
         O18       1.0000    0.30520   0.75060   0.81503   Biso      1.000     O          -0.558853           
         O19       1.0000    0.26830   0.07990   0.00940   Biso      1.000     O          -0.193629           
         O20       1.0000    0.69480   0.25060   0.68497   Biso      1.000     O          -0.558851 