
##########################################################################
#               Crystallographic Information Format file
#               Produced by PyCifRW module
#
#  This is a CIF file.  CIF has been adopted by the International
#  Union of Crystallography as the standard for data archiving and
#  transmission.
#
#  For information on this file format, follow the CIF links at
#  http://www.iucr.org
##########################################################################

data_image0

_cell_length_a                          9.5667
_cell_length_b                          16.4081
_cell_length_c                          16.4469
_cell_angle_alpha                       90
_cell_angle_beta                        90
_cell_angle_gamma                       90
_symmetry_space_group_name_H-M          'P 1'
_symmetry_int_tables_number             1
loop_
  _symmetry_equiv_pos_as_xyz
         'x, y, z' 
loop_
  _atom_site_label
  _atom_site_occupancy
  _atom_site_fract_x
  _atom_site_fract_y
  _atom_site_fract_z
  _atom_site_thermal_displace_type
  _atom_site_B_iso_or_equiv
  _atom_site_type_symbol
  _atom_site_charge
         C1        1.0000    0.71770   0.55720   0.86420   Biso      1.000     C          0.094411  
         C2        1.0000    0.04390   0.30730   0.43510   Biso      1.000     C          0.644681  
         C3        1.0000    0.04920   0.35480   0.69450   Biso      1.000     C          -0.150341           
         C4        1.0000    0.79360   0.52780   0.65660   Biso      1.000     C          0.094804  
         C5        1.0000    0.91850   0.48740   0.67120   Biso      1.000     C          -0.199246           
         C6        1.0000    0.91650   0.40320   0.68230   Biso      1.000     C          0.152055  
         C7        1.0000    0.78780   0.36560   0.68040   Biso      1.000     C          -0.181623           
         C8        1.0000    0.66830   0.40950   0.66640   Biso      1.000     C          0.104281  
         C9        1.0000    0.16950   0.34570   0.47330   Biso      1.000     C          -0.382805           
         C10       1.0000    0.41760   0.74220   0.55330   Biso      1.000     C          0.569487  
         C11       1.0000    0.67290   0.75660   0.58450   Biso      1.000     C          -0.393256           
         C12       1.0000    0.64770   0.73780   0.67290   Biso      1.000     C          0.660907  
         C13       1.0000    0.53370   0.61000   0.42770   Biso      1.000     C          -0.130846           
         C14       1.0000    0.56830   0.38560   0.38060   Biso      1.000     C          0.084249  
         C15       1.0000    0.50960   0.45940   0.40000   Biso      1.000     C          -0.197804           
         C16       1.0000    0.59080   0.52830   0.40330   Biso      1.000     C          0.166065  
         C17       1.0000    0.73160   0.51990   0.38320   Biso      1.000     C          -0.189066           
         C18       1.0000    0.56600   0.72270   0.52370   Biso      1.000     C          0.004894  
         C19       1.0000    0.78230   0.44280   0.36420   Biso      1.000     C          0.094411  
         C20       1.0000    0.14250   0.38480   0.55720   Biso      1.000     C          0.013561  
         C21       1.0000    0.76840   0.48010   0.88320   Biso      1.000     C          -0.189065           
         C22       1.0000    0.33050   0.65430   0.97330   Biso      1.000     C          -0.382805           
         C23       1.0000    0.45610   0.69270   0.93510   Biso      1.000     C          0.644681  
         C24       1.0000    0.45080   0.64520   0.19450   Biso      1.000     C          -0.150341           
         C25       1.0000    0.70640   0.47220   0.15660   Biso      1.000     C          0.094804  
         C26       1.0000    0.58150   0.51260   0.17120   Biso      1.000     C          -0.199246           
         C27       1.0000    0.58350   0.59680   0.18230   Biso      1.000     C          0.152055  
         C28       1.0000    0.71220   0.63440   0.18040   Biso      1.000     C          -0.181623           
         C29       1.0000    0.27620   0.42830   0.58510   Biso      1.000     C          0.566877  
         C30       1.0000    0.83170   0.59050   0.16640   Biso      1.000     C          0.104282  
         C31       1.0000    0.93400   0.27730   0.02370   Biso      1.000     C          0.004895  
         C32       1.0000    0.82710   0.24340   0.08450   Biso      1.000     C          -0.393256           
         C33       1.0000    0.85230   0.26220   0.17290   Biso      1.000     C          0.660907  
         C34       1.0000    0.96630   0.39000   0.92770   Biso      1.000     C          -0.130846           
         C35       1.0000    0.93170   0.61440   0.88060   Biso      1.000     C          0.084249  
         C36       1.0000    0.99040   0.54060   0.90000   Biso      1.000     C          -0.197804           
         C37       1.0000    0.90920   0.47170   0.90330   Biso      1.000     C          0.166065  
         C38       1.0000    0.08240   0.25780   0.05330   Biso      1.000     C          0.569487  
         C39       1.0000    0.77620   0.07170   0.41490   Biso      1.000     C          0.566877  
         C40       1.0000    0.64250   0.11520   0.44280   Biso      1.000     C          0.013561  
         C41       1.0000    0.66950   0.15430   0.52670   Biso      1.000     C          -0.382805           
         C42       1.0000    0.95080   0.85480   0.80550   Biso      1.000     C          -0.150341           
         C43       1.0000    0.20640   0.02780   0.84340   Biso      1.000     C          0.094804  
         C44       1.0000    0.08150   0.98740   0.82880   Biso      1.000     C          -0.199246           
         C45       1.0000    0.08350   0.90320   0.81770   Biso      1.000     C          0.152055  
         C46       1.0000    0.21220   0.86560   0.81960   Biso      1.000     C          -0.181623           
         C47       1.0000    0.33170   0.90950   0.83360   Biso      1.000     C          0.104282  
         C48       1.0000    0.58240   0.24220   0.94670   Biso      1.000     C          0.569487  
         C49       1.0000    0.95610   0.80730   0.06490   Biso      1.000     C          0.644681  
         C50       1.0000    0.43400   0.22270   0.97630   Biso      1.000     C          0.004895  
         C51       1.0000    0.35230   0.23780   0.82710   Biso      1.000     C          0.660907  
         C52       1.0000    0.46630   0.11000   0.07230   Biso      1.000     C          -0.130846           
         C53       1.0000    0.43170   0.88560   0.11940   Biso      1.000     C          0.084249  
         C54       1.0000    0.49040   0.95940   0.10000   Biso      1.000     C          -0.197804           
         C55       1.0000    0.40920   0.02830   0.09670   Biso      1.000     C          0.166065  
         C56       1.0000    0.26840   0.01990   0.11680   Biso      1.000     C          -0.189066           
         C57       1.0000    0.21770   0.94280   0.13580   Biso      1.000     C          0.094411  
         C58       1.0000    0.32710   0.25660   0.91550   Biso      1.000     C          -0.393256           
         C59       1.0000    0.83050   0.84570   0.02670   Biso      1.000     C          -0.382805           
         C60       1.0000    0.85750   0.88480   0.94280   Biso      1.000     C          0.013561  
         C61       1.0000    0.72380   0.92830   0.91490   Biso      1.000     C          0.566877  
         C62       1.0000    0.54390   0.19270   0.56490   Biso      1.000     C          0.644681  
         C63       1.0000    0.54920   0.14520   0.30550   Biso      1.000     C          -0.150341           
         C64       1.0000    0.29360   0.97220   0.34340   Biso      1.000     C          0.094804  
         C65       1.0000    0.41850   0.01260   0.32880   Biso      1.000     C          -0.199246           
         C66       1.0000    0.41650   0.09680   0.31770   Biso      1.000     C          0.152055  
         C67       1.0000    0.28780   0.13440   0.31960   Biso      1.000     C          -0.181623           
         C68       1.0000    0.16830   0.09050   0.33360   Biso      1.000     C          0.104282  
         C69       1.0000    0.91760   0.75780   0.44670   Biso      1.000     C          0.569487  
         C70       1.0000    0.06600   0.77730   0.47630   Biso      1.000     C          0.004895  
         C71       1.0000    0.17290   0.74340   0.41550   Biso      1.000     C          -0.393256           
         C72       1.0000    0.14770   0.76220   0.32710   Biso      1.000     C          0.660907  
         C73       1.0000    0.03370   0.89000   0.57230   Biso      1.000     C          -0.130846           
         C74       1.0000    0.06830   0.11440   0.61940   Biso      1.000     C          0.084249  
         C75       1.0000    0.00960   0.04060   0.60000   Biso      1.000     C          -0.197804           
         C76       1.0000    0.09080   0.97170   0.59670   Biso      1.000     C          0.166065  
         C77       1.0000    0.23160   0.98010   0.61680   Biso      1.000     C          -0.189066           
         C78       1.0000    0.28230   0.05720   0.63580   Biso      1.000     C          0.094411  
         C79       1.0000    0.35750   0.61520   0.05720   Biso      1.000     C          0.013561  
         C80       1.0000    0.22380   0.57170   0.08510   Biso      1.000     C          0.566877  
         Cd1       1.0000    0.02557   0.42964   0.12079   Biso      1.000     Cd          0.908846  
         Cd2       1.0000    0.68443   0.74988   0.85105   Biso      1.000     Cd          0.865929  
         Cd3       1.0000    0.47443   0.57036   0.62079   Biso      1.000     Cd          0.908846  
         Cd4       1.0000    0.81557   0.25012   0.35105   Biso      1.000     Cd          0.865929  
         Cd5       1.0000    0.97443   0.92964   0.37921   Biso      1.000     Cd          0.908846  
         Cd6       1.0000    0.31557   0.24988   0.64895   Biso      1.000     Cd          0.865929  
         Cd7       1.0000    0.52557   0.07036   0.87921   Biso      1.000     Cd          0.908846  
         Cd8       1.0000    0.18443   0.75012   0.14895   Biso      1.000     Cd          0.865929  
         H1        1.0000    0.23570   0.23560   0.93010   Biso      1.000     H          0.150344  
         H2        1.0000    0.62370   0.56210   0.85050   Biso      1.000     H          0.096782  
         H3        1.0000    0.02530   0.29770   0.59370   Biso      1.000     H          0.251242  
         H4        1.0000    0.68270   0.63090   0.50060   Biso      1.000     H          0.259286  
         H5        1.0000    0.06590   0.42420   0.55300   Biso      1.000     H          0.083713  
         H6        1.0000    0.24150   0.30450   0.47920   Biso      1.000     H          0.155803  
         H7        1.0000    0.20520   0.38730   0.43690   Biso      1.000     H          0.151115  
         H8        1.0000    0.03080   0.31050   0.73190   Biso      1.000     H          0.119251  
         H9        1.0000    0.78190   0.30960   0.68870   Biso      1.000     H          0.137733  
         H10       1.0000    0.79630   0.58400   0.64930   Biso      1.000     H          0.097064  
         H11       1.0000    0.00230   0.51600   0.67360   Biso      1.000     H          0.137754  
         H12       1.0000    0.70960   0.43500   0.88240   Biso      1.000     H          0.146196  
         H13       1.0000    0.58300   0.38230   0.66650   Biso      1.000     H          0.103535  
         H14       1.0000    0.57990   0.75130   0.47200   Biso      1.000     H          0.087905  
         H15       1.0000    0.67600   0.81530   0.57820   Biso      1.000     H          0.157041  
         H16       1.0000    0.76430   0.73560   0.56990   Biso      1.000     H          0.150344  
         H17       1.0000    0.11930   0.38980   0.71900   Biso      1.000     H          0.123338  
         H18       1.0000    0.08560   0.53730   0.91090   Biso      1.000     H          0.130728  
         H19       1.0000    0.73570   0.26440   0.06990   Biso      1.000     H          0.150344  
         H20       1.0000    0.93980   0.34960   0.88750   Biso      1.000     H          0.111296  
         H21       1.0000    0.47470   0.70230   0.09370   Biso      1.000     H          0.251242  
         H22       1.0000    0.81730   0.36910   0.00060   Biso      1.000     H          0.259286  
         H23       1.0000    0.43410   0.57580   0.05300   Biso      1.000     H          0.083713  
         H24       1.0000    0.25850   0.69550   0.97920   Biso      1.000     H          0.155803  
         H25       1.0000    0.29480   0.61270   0.93690   Biso      1.000     H          0.151115  
         H26       1.0000    0.46920   0.68950   0.23190   Biso      1.000     H          0.119251  
         H27       1.0000    0.38070   0.61020   0.21900   Biso      1.000     H          0.123338  
         H28       1.0000    0.70370   0.41600   0.14930   Biso      1.000     H          0.097064  
         H29       1.0000    0.49770   0.48400   0.17360   Biso      1.000     H          0.137754  
         H30       1.0000    0.71810   0.69040   0.18870   Biso      1.000     H          0.137733  
         H31       1.0000    0.91700   0.61770   0.16650   Biso      1.000     H          0.103535  
         H32       1.0000    0.92010   0.24870   0.97200   Biso      1.000     H          0.087905  
         H33       1.0000    0.32400   0.31530   0.92180   Biso      1.000     H          0.157041  
         H34       1.0000    0.43240   0.60760   0.42940   Biso      1.000     H          0.117025  
         H35       1.0000    0.06760   0.39240   0.92940   Biso      1.000     H          0.117025  
         H36       1.0000    0.98960   0.65990   0.87870   Biso      1.000     H          0.090097  
         H37       1.0000    0.56020   0.65040   0.38750   Biso      1.000     H          0.111296  
         H38       1.0000    0.82400   0.18470   0.07820   Biso      1.000     H          0.157041  
         H39       1.0000    0.41440   0.46270   0.41090   Biso      1.000     H          0.130728  
         H40       1.0000    0.31730   0.13090   0.99940   Biso      1.000     H          0.259286  
         H41       1.0000    0.93410   0.92420   0.94700   Biso      1.000     H          0.083713  
         H42       1.0000    0.75850   0.80450   0.02080   Biso      1.000     H          0.155803  
         H43       1.0000    0.79480   0.88730   0.06310   Biso      1.000     H          0.151115  
         H44       1.0000    0.96920   0.81050   0.76810   Biso      1.000     H          0.119251  
         H45       1.0000    0.88070   0.88980   0.78100   Biso      1.000     H          0.123338  
         H46       1.0000    0.20370   0.08400   0.85070   Biso      1.000     H          0.097064  
         H47       1.0000    0.99770   0.01600   0.82640   Biso      1.000     H          0.137754  
         H48       1.0000    0.37630   0.06210   0.64950   Biso      1.000     H          0.096782  
         H49       1.0000    0.21810   0.80960   0.81130   Biso      1.000     H          0.137733  
         H50       1.0000    0.42010   0.25130   0.02800   Biso      1.000     H          0.087905  
         H51       1.0000    0.12370   0.93790   0.14950   Biso      1.000     H          0.096783  
         H52       1.0000    0.20960   0.06500   0.11760   Biso      1.000     H          0.146196  
         H53       1.0000    0.58560   0.96270   0.08910   Biso      1.000     H          0.130728  
         H54       1.0000    0.48960   0.84010   0.12130   Biso      1.000     H          0.090097  
         H55       1.0000    0.43980   0.15040   0.11250   Biso      1.000     H          0.111296  
         H56       1.0000    0.56760   0.10760   0.07060   Biso      1.000     H          0.117025  
         H57       1.0000    0.51040   0.34010   0.37870   Biso      1.000     H          0.090097  
         H58       1.0000    0.41700   0.88230   0.83350   Biso      1.000     H          0.103535  
         H59       1.0000    0.29040   0.93500   0.61760   Biso      1.000     H          0.146196  
         H60       1.0000    0.97470   0.79770   0.90630   Biso      1.000     H          0.251242  
         H61       1.0000    0.01040   0.15990   0.62130   Biso      1.000     H          0.090097  
         H62       1.0000    0.79040   0.56500   0.38240   Biso      1.000     H          0.146196  
         H63       1.0000    0.87630   0.43790   0.35050   Biso      1.000     H          0.096783  
         H64       1.0000    0.52530   0.20230   0.40630   Biso      1.000     H          0.251242  
         H65       1.0000    0.18270   0.86910   0.49940   Biso      1.000     H          0.259286  
         H66       1.0000    0.56590   0.07580   0.44700   Biso      1.000     H          0.083713  
         H67       1.0000    0.74150   0.19550   0.52080   Biso      1.000     H          0.155803  
         H68       1.0000    0.70520   0.11270   0.56310   Biso      1.000     H          0.151115  
         H69       1.0000    0.91440   0.03730   0.58910   Biso      1.000     H          0.130728  
         H70       1.0000    0.61930   0.11020   0.28100   Biso      1.000     H          0.123338  
         H71       1.0000    0.29630   0.91600   0.35070   Biso      1.000     H          0.097064  
         H72       1.0000    0.53080   0.18950   0.26810   Biso      1.000     H          0.119251  
         H73       1.0000    0.28190   0.19040   0.31130   Biso      1.000     H          0.137733  
         H74       1.0000    0.08300   0.11770   0.33350   Biso      1.000     H          0.103535  
         H75       1.0000    0.07990   0.74870   0.52800   Biso      1.000     H          0.087905  
         H76       1.0000    0.17600   0.68470   0.42180   Biso      1.000     H          0.157041  
         H77       1.0000    0.26430   0.76440   0.43010   Biso      1.000     H          0.150344  
         H78       1.0000    0.93240   0.89240   0.57060   Biso      1.000     H          0.117025  
         H79       1.0000    0.06020   0.84960   0.61250   Biso      1.000     H          0.111296  
         H80       1.0000    0.50230   0.98400   0.32640   Biso      1.000     H          0.137754  
         N1        1.0000    0.29560   0.87570   0.13560   Biso      1.000     N          -0.241377           
         N2        1.0000    0.16950   0.00970   0.34760   Biso      1.000     N          -0.246743           
         N3        1.0000    0.41250   0.13470   0.99160   Biso      1.000     N          -0.383625           
         N4        1.0000    0.33050   0.99030   0.84760   Biso      1.000     N          -0.246743           
         N5        1.0000    0.89410   0.82060   0.88300   Biso      1.000     N          -0.362187           
         N6        1.0000    0.20440   0.12430   0.63560   Biso      1.000     N          -0.241377           
         N7        1.0000    0.08750   0.86530   0.49160   Biso      1.000     N          -0.383625           
         N8        1.0000    0.60590   0.17940   0.38300   Biso      1.000     N          -0.362186           
         N9        1.0000    0.91250   0.36530   0.00840   Biso      1.000     N          -0.383625           
         N10       1.0000    0.58750   0.63470   0.50840   Biso      1.000     N          -0.383625           
         N11       1.0000    0.66950   0.49030   0.65240   Biso      1.000     N          -0.246743           
         N12       1.0000    0.10590   0.32060   0.61700   Biso      1.000     N          -0.362186           
         N13       1.0000    0.79560   0.62430   0.86440   Biso      1.000     N          -0.241377           
         N14       1.0000    0.83050   0.50970   0.15240   Biso      1.000     N          -0.246743           
         N15       1.0000    0.39410   0.67940   0.11700   Biso      1.000     N          -0.362186           
         N16       1.0000    0.70440   0.37570   0.36440   Biso      1.000     N          -0.241377           
         O1        1.0000    0.78990   0.99690   0.43310   Biso      1.000     O          -0.544625           
         O2        1.0000    0.53930   0.19733   0.64215   Biso      1.000     O          -0.576528           
         O3        1.0000    0.44490   0.21910   0.52219   Biso      1.000     O          -0.595019           
         O4        1.0000    0.84310   0.81636   0.42089   Biso      1.000     O          -0.576767           
         O5        1.0000    0.88100   0.68460   0.45070   Biso      1.000     O          -0.588875           
         O6        1.0000    0.09970   0.82983   0.30547   Biso      1.000     O          -0.588274           
         O7        1.0000    0.71010   0.00310   0.93310   Biso      1.000     O          -0.544625           
         O8        1.0000    0.63380   0.88847   0.87630   Biso      1.000     O          -0.544331           
         O9        1.0000    0.86620   0.11153   0.37630   Biso      1.000     O          -0.544331           
         O10       1.0000    0.96070   0.80267   0.14215   Biso      1.000     O          -0.576528           
         O11       1.0000    0.05510   0.78090   0.02219   Biso      1.000     O          -0.595019           
         O12       1.0000    0.65690   0.18364   0.92089   Biso      1.000     O          -0.576767           
         O13       1.0000    0.61900   0.31540   0.95070   Biso      1.000     O          -0.588875           
         O14       1.0000    0.18710   0.70777   0.27669   Biso      1.000     O          -0.564958           
         O15       1.0000    0.68710   0.79223   0.72331   Biso      1.000     O          -0.564958           
         O16       1.0000    0.34310   0.68364   0.57911   Biso      1.000     O          -0.576767           
         O17       1.0000    0.38100   0.81540   0.54930   Biso      1.000     O          -0.588875           
         O18       1.0000    0.94490   0.28090   0.47781   Biso      1.000     O          -0.595019           
         O19       1.0000    0.03930   0.30267   0.35785   Biso      1.000     O          -0.576528           
         O20       1.0000    0.28990   0.50310   0.56690   Biso      1.000     O          -0.544625           
         O21       1.0000    0.36620   0.38847   0.62370   Biso      1.000     O          -0.544331           
         O22       1.0000    0.81290   0.20777   0.22331   Biso      1.000     O          -0.564958           
         O23       1.0000    0.90030   0.32983   0.19453   Biso      1.000     O          -0.588274           
         O24       1.0000    0.11900   0.18460   0.04930   Biso      1.000     O          -0.588875           
         O25       1.0000    0.15690   0.31636   0.07911   Biso      1.000     O          -0.576767           
         O26       1.0000    0.55510   0.71910   0.97781   Biso      1.000     O          -0.595019           
         O27       1.0000    0.46070   0.69733   0.85785   Biso      1.000     O          -0.576528           
         O28       1.0000    0.21010   0.49690   0.06690   Biso      1.000     O          -0.544625           
         O29       1.0000    0.13380   0.61153   0.12370   Biso      1.000     O          -0.544331           
         O30       1.0000    0.40030   0.17017   0.80547   Biso      1.000     O          -0.588274           
         O31       1.0000    0.59970   0.67017   0.69453   Biso      1.000     O          -0.588274           
         O32       1.0000    0.31290   0.29223   0.77669   Biso      1.000     O          -0.564958 