
##########################################################################
#               Crystallographic Information Format file
#               Produced by PyCifRW module
#
#  This is a CIF file.  CIF has been adopted by the International
#  Union of Crystallography as the standard for data archiving and
#  transmission.
#
#  For information on this file format, follow the CIF links at
#  http://www.iucr.org
##########################################################################

data_image0

_cell_length_a                          14.1869
_cell_length_b                          14.8623
_cell_length_c                          14.8623
_cell_angle_alpha                       76.8064
_cell_angle_beta                        63.571
_cell_angle_gamma                       116.429
_symmetry_space_group_name_H-M          'P 1'
_symmetry_int_tables_number             1
loop_
  _symmetry_equiv_pos_as_xyz
         'x, y, z' 
loop_
  _atom_site_label
  _atom_site_occupancy
  _atom_site_fract_x
  _atom_site_fract_y
  _atom_site_fract_z
  _atom_site_thermal_displace_type
  _atom_site_B_iso_or_equiv
  _atom_site_type_symbol
  _atom_site_charge
         C1        1.0000    0.48190   0.26832   0.37192   Biso      1.000     C          -0.10271199999999998          
         C2        1.0000    0.49890   0.31505   0.67305   Biso      1.000     C          -0.07671  
         C3        1.0000    0.57877   0.35641   0.70601   Biso      1.000     C          -0.09310800000000001          
         C4        1.0000    0.52215   0.34052   0.81712   Biso      1.000     C          -0.024669           
         C5        1.0000    0.38555   0.28405   0.89565   Biso      1.000     C          -0.10276400000000001          
         C6        1.0000    0.30460   0.24252   0.86292   Biso      1.000     C          -0.076317           
         C7        1.0000    0.36024   0.25813   0.74991   Biso      1.000     C          -0.19655799999999998          
         C8        1.0000    0.56883   0.40277   0.16957   Biso      1.000     C          0.613962  
         C9        1.0000    0.37510   0.36810   0.46690   Biso      1.000     C          -0.076467           
         C10       1.0000    0.14513   0.04267   0.77471   Biso      1.000     C          -0.198388           
         C11       1.0000    0.08800   0.99128   0.72728   Biso      1.000     C          -0.082314           
         C12       1.0000    0.01810   0.87192   0.76832   Biso      1.000     C          -0.102709           
         C13       1.0000    0.60989   0.38951   0.85151   Biso      1.000     C          0.584971  
         C14       1.0000    0.00307   0.79925   0.85945   Biso      1.000     C          -0.023923           
         C15       1.0000    0.12490   0.96690   0.86810   Biso      1.000     C          -0.07646499999999999          
         C16       1.0000    0.93117   0.66957   0.90277   Biso      1.000     C          0.613963  
         C17       1.0000    0.13976   0.24991   0.75813   Biso      1.000     C          -0.19655799999999998          
         C18       1.0000    0.19540   0.36292   0.74252   Biso      1.000     C          -0.076317           
         C19       1.0000    0.11445   0.39565   0.78405   Biso      1.000     C          -0.10276600000000001          
         C20       1.0000    0.97785   0.31712   0.84052   Biso      1.000     C          -0.024668           
         C21       1.0000    0.92123   0.20601   0.85641   Biso      1.000     C          -0.093109           
         C22       1.0000    0.00110   0.17305   0.81505   Biso      1.000     C          -0.07670700000000001          
         C23       1.0000    0.89011   0.35151   0.88951   Biso      1.000     C          0.584971  
         C24       1.0000    0.35487   0.27471   0.54267   Biso      1.000     C          -0.19838599999999998          
         C25       1.0000    0.41200   0.22728   0.49128   Biso      1.000     C          -0.082313           
         C26       1.0000    0.05460   0.84694   0.91054   Biso      1.000     C          -0.10725599999999999          
         C27       1.0000    0.85487   0.95733   0.22529   Biso      1.000     C          -0.198388           
         C28       1.0000    0.91200   0.00872   0.27272   Biso      1.000     C          -0.082314           
         C29       1.0000    0.98190   0.12808   0.23168   Biso      1.000     C          -0.10271  
         C30       1.0000    0.39011   0.61049   0.14849   Biso      1.000     C          0.584971  
         C31       1.0000    0.50110   0.68495   0.32695   Biso      1.000     C          -0.076711           
         C32       1.0000    0.42123   0.64359   0.29399   Biso      1.000     C          -0.09310700000000001          
         C33       1.0000    0.47785   0.65948   0.18288   Biso      1.000     C          -0.024669           
         C34       1.0000    0.61445   0.71595   0.10435   Biso      1.000     C          -0.10276400000000001          
         C35       1.0000    0.69540   0.75748   0.13708   Biso      1.000     C          -0.076317           
         C36       1.0000    0.63976   0.74187   0.25009   Biso      1.000     C          -0.19655799999999998          
         C37       1.0000    0.43117   0.59723   0.83043   Biso      1.000     C          0.613962  
         C38       1.0000    0.62490   0.63190   0.53310   Biso      1.000     C          -0.076467           
         C39       1.0000    0.55460   0.58946   0.65306   Biso      1.000     C          -0.10726199999999998          
         C40       1.0000    0.50307   0.64055   0.70075   Biso      1.000     C          -0.023916999999999997         
         C41       1.0000    0.51810   0.73168   0.62808   Biso      1.000     C          -0.102711           
         C42       1.0000    0.58800   0.77272   0.50872   Biso      1.000     C          -0.082313           
         C43       1.0000    0.64513   0.72529   0.45733   Biso      1.000     C          -0.19838599999999998          
         C44       1.0000    0.10989   0.64849   0.11049   Biso      1.000     C          0.584971  
         C45       1.0000    0.99890   0.82695   0.18495   Biso      1.000     C          -0.076711           
         C46       1.0000    0.07877   0.79399   0.14359   Biso      1.000     C          -0.09310700000000001          
         C47       1.0000    0.02215   0.68288   0.15948   Biso      1.000     C          -0.024669           
         C48       1.0000    0.88555   0.60435   0.21595   Biso      1.000     C          -0.10276400000000001          
         C49       1.0000    0.80460   0.63708   0.25748   Biso      1.000     C          -0.076317           
         C50       1.0000    0.86024   0.75009   0.24187   Biso      1.000     C          -0.19655799999999998          
         C51       1.0000    0.06883   0.33043   0.09723   Biso      1.000     C          0.613962  
         C52       1.0000    0.87510   0.03310   0.13190   Biso      1.000     C          -0.076464           
         C53       1.0000    0.94540   0.15306   0.08946   Biso      1.000     C          -0.10726199999999998          
         C54       1.0000    0.99693   0.20075   0.14055   Biso      1.000     C          -0.023916999999999997         
         C55       1.0000    0.44540   0.41054   0.34694   Biso      1.000     C          -0.10726199999999998          
         C56       1.0000    0.49693   0.35945   0.29925   Biso      1.000     C          -0.023916999999999997         
         Cd1       1.0000    0.75000   0.43594   0.93594   Biso      1.000     Cd          0.9921459999999999  
         Cd2       1.0000    0.25000   0.56406   0.06406   Biso      1.000     Cd          0.9921459999999999  
         Cd3       1.0000    0.00000   0.50000   0.00000   Biso      1.000     Cd          1.163517  
         Cd4       1.0000    0.50000   0.50000   0.00000   Biso      1.000     Cd          1.163517  
         H1        1.0000    0.46110   0.67450   0.40330   Biso      1.000     H          0.10063   
         H2        1.0000    0.33950   0.40410   0.49830   Biso      1.000     H          0.096558  
         H3        1.0000    0.45820   0.47520   0.29740   Biso      1.000     H          0.102778  
         H4        1.0000    0.51960   0.23410   0.33970   Biso      1.000     H          0.11866800000000001           
         H5        1.0000    0.40250   0.16470   0.53990   Biso      1.000     H          0.10242899999999999           
         H6        1.0000    0.96110   0.09670   0.82550   Biso      1.000     H          0.10063   
         H7        1.0000    0.28930   0.41760   0.70320   Biso      1.000     H          0.102095  
         H8        1.0000    0.21070   0.20320   0.91760   Biso      1.000     H          0.102095  
         H9        1.0000    0.16050   0.99830   0.90410   Biso      1.000     H          0.096558  
         H10       1.0000    0.04180   0.79740   0.97520   Biso      1.000     H          0.102778  
         H11       1.0000    0.98040   0.83970   0.73410   Biso      1.000     H          0.11866800000000001           
         H12       1.0000    0.09750   0.03990   0.66470   Biso      1.000     H          0.10242899999999999           
         H13       1.0000    0.82720   0.15200   0.89580   Biso      1.000     H          0.126105  
         H14       1.0000    0.34690   0.27360   0.97200   Biso      1.000     H          0.109681  
         H15       1.0000    0.15310   0.47200   0.77360   Biso      1.000     H          0.109681  
         H16       1.0000    0.53890   0.32550   0.59670   Biso      1.000     H          0.10063   
         H17       1.0000    0.32720   0.60420   0.34800   Biso      1.000     H          0.126105  
         H18       1.0000    0.67280   0.39580   0.65200   Biso      1.000     H          0.126105  
         H19       1.0000    0.78930   0.79680   0.08240   Biso      1.000     H          0.102095  
         H20       1.0000    0.66050   0.59590   0.50170   Biso      1.000     H          0.096558  
         H21       1.0000    0.54180   0.52480   0.70260   Biso      1.000     H          0.102778  
         H22       1.0000    0.48040   0.76590   0.66030   Biso      1.000     H          0.11866800000000001           
         H23       1.0000    0.59750   0.83530   0.46010   Biso      1.000     H          0.10242899999999999           
         H24       1.0000    0.03890   0.90330   0.17450   Biso      1.000     H          0.10063   
         H25       1.0000    0.65310   0.72640   0.02800   Biso      1.000     H          0.109681  
         H26       1.0000    0.17280   0.84800   0.10420   Biso      1.000     H          0.126105  
         H27       1.0000    0.84690   0.52800   0.22640   Biso      1.000     H          0.109681  
         H28       1.0000    0.71070   0.58240   0.29680   Biso      1.000     H          0.102095  
         H29       1.0000    0.83950   0.00170   0.09590   Biso      1.000     H          0.096558  
         H30       1.0000    0.95820   0.20260   0.02480   Biso      1.000     H          0.102778  
         H31       1.0000    0.01960   0.16030   0.26590   Biso      1.000     H          0.11866800000000001           
         H32       1.0000    0.90250   0.96010   0.33530   Biso      1.000     H          0.10242899999999999           
         O1        1.0000    0.43073   0.52366   0.89052   Biso      1.000     O          -0.607241           
         O2        1.0000    0.37448   0.64131   0.87039   Biso      1.000     O          -0.570602           
         O3        1.0000    0.22971   0.71323   0.07143   Biso      1.000     O          -0.5049   
         O4        1.0000    0.05925   0.55195   0.11357   Biso      1.000     O          -0.621387           
         O5        1.0000    0.06927   0.39052   0.02366   Biso      1.000     O          -0.607241           
         O6        1.0000    0.12552   0.37039   0.14131   Biso      1.000     O          -0.570602           
         O7        1.0000    0.72971   0.42857   0.78677   Biso      1.000     O          -0.5049   
         O8        1.0000    0.55925   0.38643   0.94805   Biso      1.000     O          -0.621387           
         O9        1.0000    0.77029   0.28677   0.92857   Biso      1.000     O          -0.5049   
         O10       1.0000    0.62552   0.35869   0.12961   Biso      1.000     O          -0.570602           
         O11       1.0000    0.44075   0.61357   0.05195   Biso      1.000     O          -0.621387           
         O12       1.0000    0.94075   0.44805   0.88643   Biso      1.000     O          -0.621387           
         O13       1.0000    0.93073   0.60948   0.97634   Biso      1.000     O          -0.607241           
         O14       1.0000    0.87448   0.62961   0.85869   Biso      1.000     O          -0.570602           
         O15       1.0000    0.56927   0.47634   0.10948   Biso      1.000     O          -0.607241           
         O16       1.0000    0.27029   0.57143   0.21323   Biso      1.000     O          -0.5049   
         Si1       1.0000    0.25000   0.20678   0.70678   Biso      1.000     Si          0.6592020000000001  
         Si2       1.0000    0.75000   0.79322   0.29322   Biso      1.000     Si          0.6592020000000001 