
##########################################################################
#               Crystallographic Information Format file
#               Produced by PyCifRW module
#
#  This is a CIF file.  CIF has been adopted by the International
#  Union of Crystallography as the standard for data archiving and
#  transmission.
#
#  For information on this file format, follow the CIF links at
#  http://www.iucr.org
##########################################################################

data_image0

_cell_length_a                          12.6835
_cell_length_b                          12.6835
_cell_length_c                          12.6835
_cell_angle_alpha                       83.9769
_cell_angle_beta                        83.9769
_cell_angle_gamma                       83.9769
_symmetry_space_group_name_H-M          'P 1'
_symmetry_int_tables_number             1
loop_
  _symmetry_equiv_pos_as_xyz
         'x, y, z' 
loop_
  _atom_site_label
  _atom_site_occupancy
  _atom_site_fract_x
  _atom_site_fract_y
  _atom_site_fract_z
  _atom_site_thermal_displace_type
  _atom_site_B_iso_or_equiv
  _atom_site_type_symbol
  _atom_site_charge
         C1        1.0000    0.13108   0.58818   0.38238   Biso      1.000     C          0.700823  
         C2        1.0000    0.70633   0.71173   0.00763   Biso      1.000     C          0.675933  
         C3        1.0000    0.08818   0.63108   0.88238   Biso      1.000     C          0.700822  
         C4        1.0000    0.00470   0.70820   0.83120   Biso      1.000     C          -0.507109           
         C5        1.0000    0.00763   0.70633   0.71173   Biso      1.000     C          0.675933  
         C6        1.0000    0.88238   0.08818   0.63108   Biso      1.000     C          0.700822  
         C7        1.0000    0.83120   0.00470   0.70820   Biso      1.000     C          -0.507108           
         C8        1.0000    0.70820   0.83120   0.00470   Biso      1.000     C          -0.507108           
         C9        1.0000    0.71173   0.00763   0.70633   Biso      1.000     C          0.675933  
         C10       1.0000    0.66880   0.79180   0.49530   Biso      1.000     C          -0.507108           
         C11       1.0000    0.78827   0.79367   0.49237   Biso      1.000     C          0.675933  
         C12       1.0000    0.86892   0.41182   0.61762   Biso      1.000     C          0.700823  
         C13       1.0000    0.79180   0.49530   0.66880   Biso      1.000     C          -0.507108           
         C14       1.0000    0.79367   0.49237   0.78827   Biso      1.000     C          0.675933  
         C15       1.0000    0.41182   0.61762   0.86892   Biso      1.000     C          0.700821  
         C16       1.0000    0.61762   0.86892   0.41182   Biso      1.000     C          0.700822  
         C17       1.0000    0.63108   0.88238   0.08818   Biso      1.000     C          0.700822  
         C18       1.0000    0.50763   0.21173   0.20633   Biso      1.000     C          0.675933  
         C19       1.0000    0.50470   0.33120   0.20820   Biso      1.000     C          -0.507109           
         C20       1.0000    0.36892   0.11762   0.91182   Biso      1.000     C          0.700823  
         C21       1.0000    0.29180   0.16880   0.99530   Biso      1.000     C          -0.507108           
         C22       1.0000    0.29367   0.28827   0.99237   Biso      1.000     C          0.675932  
         C23       1.0000    0.91182   0.36892   0.11762   Biso      1.000     C          0.700823  
         C24       1.0000    0.99530   0.29180   0.16880   Biso      1.000     C          -0.507109           
         C25       1.0000    0.99237   0.29367   0.28827   Biso      1.000     C          0.675934  
         C26       1.0000    0.11762   0.91182   0.36892   Biso      1.000     C          0.700822  
         C27       1.0000    0.16880   0.99530   0.29180   Biso      1.000     C          -0.507108           
         C28       1.0000    0.28827   0.99237   0.29367   Biso      1.000     C          0.675933  
         C29       1.0000    0.38238   0.13108   0.58818   Biso      1.000     C          0.700822  
         C30       1.0000    0.33120   0.20820   0.50470   Biso      1.000     C          -0.507108           
         C31       1.0000    0.21173   0.20633   0.50763   Biso      1.000     C          0.675934  
         C32       1.0000    0.20820   0.50470   0.33120   Biso      1.000     C          -0.507108           
         C33       1.0000    0.20633   0.50763   0.21173   Biso      1.000     C          0.675933  
         C34       1.0000    0.58818   0.38238   0.13108   Biso      1.000     C          0.700822  
         C35       1.0000    0.49530   0.66880   0.79180   Biso      1.000     C          -0.507108           
         C36       1.0000    0.49237   0.78827   0.79367   Biso      1.000     C          0.675932  
         Cd1       1.0000    0.48795   0.01205   0.75000   Biso      1.000     Cd          0.999554  
         Cd2       1.0000    0.98795   0.25000   0.51205   Biso      1.000     Cd          0.999558  
         Cd3       1.0000    0.51205   0.98795   0.25000   Biso      1.000     Cd          0.999554  
         Cd4       1.0000    0.01205   0.75000   0.48795   Biso      1.000     Cd          0.999557  
         Cd5       1.0000    0.75000   0.48795   0.01205   Biso      1.000     Cd          0.999556  
         Cd6       1.0000    0.25000   0.51205   0.98795   Biso      1.000     Cd          0.999555  
         H1        1.0000    0.56520   0.63660   0.80840   Biso      1.000     H          0.190588  
         H2        1.0000    0.22020   0.15350   0.98560   Biso      1.000     H          0.182035  
         H3        1.0000    0.48560   0.65350   0.72020   Biso      1.000     H          0.182036  
         H4        1.0000    0.80840   0.56520   0.63660   Biso      1.000     H          0.190587  
         H5        1.0000    0.72020   0.48560   0.65350   Biso      1.000     H          0.182035  
         H6        1.0000    0.63660   0.80840   0.56520   Biso      1.000     H          0.190587  
         H7        1.0000    0.65350   0.72020   0.48560   Biso      1.000     H          0.182035  
         H8        1.0000    0.86340   0.93480   0.69160   Biso      1.000     H          0.190587  
         H9        1.0000    0.84650   0.01440   0.77980   Biso      1.000     H          0.182035  
         H10       1.0000    0.30840   0.13660   0.06520   Biso      1.000     H          0.190587  
         H11       1.0000    0.69160   0.86340   0.93480   Biso      1.000     H          0.190587  
         H12       1.0000    0.77980   0.84650   0.01440   Biso      1.000     H          0.182036  
         H13       1.0000    0.43480   0.36340   0.19160   Biso      1.000     H          0.190587  
         H14       1.0000    0.51440   0.34650   0.27980   Biso      1.000     H          0.182036  
         H15       1.0000    0.19160   0.43480   0.36340   Biso      1.000     H          0.190587  
         H16       1.0000    0.27980   0.51440   0.34650   Biso      1.000     H          0.182035  
         H17       1.0000    0.36340   0.19160   0.43480   Biso      1.000     H          0.190587  
         H18       1.0000    0.34650   0.27980   0.51440   Biso      1.000     H          0.182035  
         H19       1.0000    0.13660   0.06520   0.30840   Biso      1.000     H          0.190588  
         H20       1.0000    0.15350   0.98560   0.22020   Biso      1.000     H          0.182035  
         H21       1.0000    0.06520   0.30840   0.13660   Biso      1.000     H          0.190587  
         H22       1.0000    0.98560   0.22020   0.15350   Biso      1.000     H          0.182035  
         H23       1.0000    0.01440   0.77980   0.84650   Biso      1.000     H          0.182035  
         H24       1.0000    0.93480   0.69160   0.86340   Biso      1.000     H          0.190587  
         Ni1       1.0000    0.02931   0.47069   0.75000   Biso      1.000     Ni          0.969932  
         Ni2       1.0000    0.75000   0.02931   0.47069   Biso      1.000     Ni          0.969923  
         Ni3       1.0000    0.52931   0.25000   0.97069   Biso      1.000     Ni          0.969916  
         Ni4       1.0000    0.97069   0.52931   0.25000   Biso      1.000     Ni          0.969934  
         Ni5       1.0000    0.25000   0.97069   0.52931   Biso      1.000     Ni          0.969922  
         Ni6       1.0000    0.47069   0.75000   0.02931   Biso      1.000     Ni          0.969916  
         O1        1.0000    0.50657   0.15541   0.29485   Biso      1.000     O          -0.533123           
         O2        1.0000    0.50826   0.16985   0.12095   Biso      1.000     O          -0.563878           
         O3        1.0000    0.64248   0.44648   0.16508   Biso      1.000     O          -0.535124           
         O4        1.0000    0.60095   0.36209   0.03543   Biso      1.000     O          -0.594879           
         O5        1.0000    0.29485   0.50657   0.15541   Biso      1.000     O          -0.533121           
         O6        1.0000    0.12095   0.50826   0.16985   Biso      1.000     O          -0.563885           
         O7        1.0000    0.16508   0.64248   0.44648   Biso      1.000     O          -0.535125           
         O8        1.0000    0.03543   0.60095   0.36209   Biso      1.000     O          -0.594884           
         O9        1.0000    0.15541   0.29485   0.50657   Biso      1.000     O          -0.533122           
         O10       1.0000    0.16985   0.12095   0.50826   Biso      1.000     O          -0.563889           
         O11       1.0000    0.44648   0.16508   0.64248   Biso      1.000     O          -0.535123           
         O12       1.0000    0.33015   0.99174   0.37905   Biso      1.000     O          -0.563878           
         O13       1.0000    0.34459   0.99343   0.20515   Biso      1.000     O          -0.533122           
         O14       1.0000    0.05352   0.85752   0.33492   Biso      1.000     O          -0.535125           
         O15       1.0000    0.37905   0.33015   0.99174   Biso      1.000     O          -0.56388  
         O16       1.0000    0.13791   0.89905   0.46457   Biso      1.000     O          -0.594883           
         O17       1.0000    0.99343   0.20515   0.34459   Biso      1.000     O          -0.533122           
         O18       1.0000    0.99174   0.37905   0.33015   Biso      1.000     O          -0.563889           
         O19       1.0000    0.85752   0.33492   0.05352   Biso      1.000     O          -0.535124           
         O20       1.0000    0.89905   0.46457   0.13791   Biso      1.000     O          -0.594881           
         O21       1.0000    0.20515   0.34459   0.99343   Biso      1.000     O          -0.533121           
         O22       1.0000    0.36209   0.03543   0.60095   Biso      1.000     O          -0.594874           
         O23       1.0000    0.53543   0.86209   0.10095   Biso      1.000     O          -0.594881           
         O24       1.0000    0.83492   0.35752   0.55352   Biso      1.000     O          -0.535124           
         O25       1.0000    0.62095   0.66985   0.00826   Biso      1.000     O          -0.563879           
         O26       1.0000    0.33492   0.05352   0.85752   Biso      1.000     O          -0.535125           
         O27       1.0000    0.49343   0.84459   0.70515   Biso      1.000     O          -0.533122           
         O28       1.0000    0.49174   0.83015   0.87905   Biso      1.000     O          -0.563877           
         O29       1.0000    0.35752   0.55352   0.83492   Biso      1.000     O          -0.535124           
         O30       1.0000    0.39905   0.63791   0.96457   Biso      1.000     O          -0.594878           
         O31       1.0000    0.70515   0.49343   0.84459   Biso      1.000     O          -0.533121           
         O32       1.0000    0.87905   0.49174   0.83015   Biso      1.000     O          -0.563884           
         O33       1.0000    0.96457   0.39905   0.63791   Biso      1.000     O          -0.594884           
         O34       1.0000    0.84459   0.70515   0.49343   Biso      1.000     O          -0.533123           
         O35       1.0000    0.83015   0.87905   0.49174   Biso      1.000     O          -0.56389  
         O36       1.0000    0.55352   0.83492   0.35752   Biso      1.000     O          -0.535123           
         O37       1.0000    0.63791   0.96457   0.39905   Biso      1.000     O          -0.594875           
         O38       1.0000    0.65541   0.00657   0.79485   Biso      1.000     O          -0.533122           
         O39       1.0000    0.66985   0.00826   0.62095   Biso      1.000     O          -0.563878           
         O40       1.0000    0.94648   0.14248   0.66508   Biso      1.000     O          -0.535125           
         O41       1.0000    0.86209   0.10095   0.53543   Biso      1.000     O          -0.594884           
         O42       1.0000    0.00657   0.79485   0.65541   Biso      1.000     O          -0.533122           
         O43       1.0000    0.00826   0.62095   0.66985   Biso      1.000     O          -0.563888           
         O44       1.0000    0.14248   0.66508   0.94648   Biso      1.000     O          -0.535124           
         O45       1.0000    0.10095   0.53543   0.86209   Biso      1.000     O          -0.59488  
         O46       1.0000    0.79485   0.65541   0.00657   Biso      1.000     O          -0.53312  
         O47       1.0000    0.66508   0.94648   0.14248   Biso      1.000     O          -0.535125           
         O48       1.0000    0.46457   0.13791   0.89905   Biso      1.000     O          -0.594882 