
##########################################################################
#               Crystallographic Information Format file
#               Produced by PyCifRW module
#
#  This is a CIF file.  CIF has been adopted by the International
#  Union of Crystallography as the standard for data archiving and
#  transmission.
#
#  For information on this file format, follow the CIF links at
#  http://www.iucr.org
##########################################################################

data_image0

_cell_length_a                          20.3837
_cell_length_b                          20.3837
_cell_length_c                          14.0079
_cell_angle_alpha                       90
_cell_angle_beta                        90
_cell_angle_gamma                       90
_symmetry_space_group_name_H-M          'P 1'
_symmetry_int_tables_number             1
loop_
  _symmetry_equiv_pos_as_xyz
         'x, y, z' 
loop_
  _atom_site_label
  _atom_site_occupancy
  _atom_site_fract_x
  _atom_site_fract_y
  _atom_site_fract_z
  _atom_site_thermal_displace_type
  _atom_site_B_iso_or_equiv
  _atom_site_type_symbol
  _atom_site_charge
         C1        1.0000    0.48350   0.10240   0.20120   Biso      1.000     C          0.120367  
         C2        1.0000    0.48790   0.93490   0.37910   Biso      1.000     C          -0.148707           
         C3        1.0000    0.39760   0.01650   0.29880   Biso      1.000     C          0.120367  
         C4        1.0000    0.93490   0.48790   0.62090   Biso      1.000     C          -0.148707           
         C5        1.0000    0.89760   0.98350   0.45120   Biso      1.000     C          0.120367  
         C6        1.0000    0.98790   0.43490   0.87910   Biso      1.000     C          -0.148707           
         C7        1.0000    0.89760   0.51650   0.79880   Biso      1.000     C          0.120367  
         C8        1.0000    0.98790   0.06510   0.37090   Biso      1.000     C          -0.148707           
         C9        1.0000    0.98350   0.60240   0.70120   Biso      1.000     C          0.120367  
         C10       1.0000    0.01210   0.56510   0.87910   Biso      1.000     C          -0.148707           
         C11       1.0000    0.10240   0.48350   0.79880   Biso      1.000     C          0.120367  
         C12       1.0000    0.56510   0.01210   0.12090   Biso      1.000     C          -0.148707           
         C13       1.0000    0.39760   0.48350   0.95120   Biso      1.000     C          0.120367  
         C14       1.0000    0.51210   0.06510   0.37910   Biso      1.000     C          -0.148707           
         C15       1.0000    0.60240   0.98350   0.29880   Biso      1.000     C          0.120367  
         C16       1.0000    0.48790   0.56510   0.87090   Biso      1.000     C          -0.148707           
         C17       1.0000    0.06510   0.51210   0.62090   Biso      1.000     C          -0.148707           
         C18       1.0000    0.43490   0.51210   0.12910   Biso      1.000     C          -0.148707           
         C19       1.0000    0.01210   0.93490   0.37090   Biso      1.000     C          -0.148707           
         C20       1.0000    0.48350   0.39760   0.04880   Biso      1.000     C          0.120367  
         C21       1.0000    0.56510   0.48790   0.12910   Biso      1.000     C          -0.148707           
         C22       1.0000    0.10240   0.01650   0.45120   Biso      1.000     C          0.120367  
         C23       1.0000    0.98350   0.89760   0.54880   Biso      1.000     C          0.120367  
         C24       1.0000    0.01650   0.39760   0.70120   Biso      1.000     C          0.120367  
         C25       1.0000    0.06510   0.98790   0.62910   Biso      1.000     C          -0.148707           
         C26       1.0000    0.51210   0.43490   0.87090   Biso      1.000     C          -0.148707           
         C27       1.0000    0.01650   0.10240   0.54880   Biso      1.000     C          0.120367  
         C28       1.0000    0.93490   0.01210   0.62910   Biso      1.000     C          -0.148707           
         C29       1.0000    0.60240   0.51650   0.95120   Biso      1.000     C          0.120367  
         C30       1.0000    0.51650   0.89760   0.20120   Biso      1.000     C          0.120367  
         C31       1.0000    0.51650   0.60240   0.04880   Biso      1.000     C          0.120367  
         C32       1.0000    0.43490   0.98790   0.12090   Biso      1.000     C          -0.148707           
         N1        1.0000    0.97580   0.65550   0.67480   Biso      1.000     N          -0.411398           
         N2        1.0000    0.09740   0.51840   0.55580   Biso      1.000     N          -0.296116           
         N3        1.0000    0.47580   0.34450   0.07520   Biso      1.000     N          -0.411398           
         N4        1.0000    0.98160   0.09740   0.30580   Biso      1.000     N          -0.296116           
         N5        1.0000    0.34450   0.47580   0.92480   Biso      1.000     N          -0.411398           
         N6        1.0000    0.65550   0.52420   0.92480   Biso      1.000     N          -0.411398           
         N7        1.0000    0.51840   0.40260   0.80580   Biso      1.000     N          -0.296116           
         N8        1.0000    0.15550   0.02420   0.42480   Biso      1.000     N          -0.411398           
         N9        1.0000    0.01840   0.90260   0.30580   Biso      1.000     N          -0.296116           
         N10       1.0000    0.84450   0.97580   0.42480   Biso      1.000     N          -0.411398           
         N11       1.0000    0.48160   0.59740   0.80580   Biso      1.000     N          -0.296116           
         N12       1.0000    0.40260   0.98160   0.05580   Biso      1.000     N          -0.296116           
         N13       1.0000    0.47580   0.15550   0.17480   Biso      1.000     N          -0.411398           
         N14       1.0000    0.59740   0.48160   0.19420   Biso      1.000     N          -0.296116           
         N15       1.0000    0.97580   0.84450   0.57520   Biso      1.000     N          -0.411398           
         N16       1.0000    0.09740   0.98160   0.69420   Biso      1.000     N          -0.296116           
         N17       1.0000    0.02420   0.15550   0.57520   Biso      1.000     N          -0.411398           
         N18       1.0000    0.59740   0.01840   0.05580   Biso      1.000     N          -0.296116           
         N19       1.0000    0.52420   0.65550   0.07520   Biso      1.000     N          -0.411398           
         N20       1.0000    0.40260   0.51840   0.19420   Biso      1.000     N          -0.296116           
         N21       1.0000    0.65550   0.97580   0.32520   Biso      1.000     N          -0.411398           
         N22       1.0000    0.51840   0.09740   0.44420   Biso      1.000     N          -0.296116           
         N23       1.0000    0.90260   0.01840   0.69420   Biso      1.000     N          -0.296116           
         N24       1.0000    0.01840   0.59740   0.94420   Biso      1.000     N          -0.296116           
         N25       1.0000    0.84450   0.52420   0.82520   Biso      1.000     N          -0.411398           
         N26       1.0000    0.98160   0.40260   0.94420   Biso      1.000     N          -0.296116           
         N27       1.0000    0.34450   0.02420   0.32520   Biso      1.000     N          -0.411398           
         N28       1.0000    0.48160   0.90260   0.44420   Biso      1.000     N          -0.296116           
         N29       1.0000    0.02420   0.34450   0.67480   Biso      1.000     N          -0.411398           
         N30       1.0000    0.90260   0.48160   0.55580   Biso      1.000     N          -0.296116           
         N31       1.0000    0.52420   0.84450   0.17480   Biso      1.000     N          -0.411398           
         N32       1.0000    0.15550   0.47580   0.82520   Biso      1.000     N          -0.411398           
         Nb1       1.0000    0.00000   0.50000   0.75000   Biso      1.000     Nb          0.820665  
         Nb2       1.0000    0.50000   0.00000   0.25000   Biso      1.000     Nb          0.820666  
         Nb3       1.0000    0.00000   0.00000   0.50000   Biso      1.000     Nb          0.820665  
         Nb4       1.0000    0.50000   0.50000   0.00000   Biso      1.000     Nb          0.820666  
         Zn1       1.0000    0.75000   0.52241   0.87500   Biso      1.000     Zn          1.061376  
         Zn2       1.0000    0.47759   0.25000   0.12500   Biso      1.000     Zn          1.061375  
         Zn3       1.0000    0.97759   0.75000   0.62500   Biso      1.000     Zn          1.061375  
         Zn4       1.0000    0.02241   0.25000   0.62500   Biso      1.000     Zn          1.061375  
         Zn5       1.0000    0.52241   0.75000   0.12500   Biso      1.000     Zn          1.061375  
         Zn6       1.0000    0.75000   0.97759   0.37500   Biso      1.000     Zn          1.061375  
         Zn7       1.0000    0.25000   0.47759   0.87500   Biso      1.000     Zn          1.061376  
         Zn8       1.0000    0.25000   0.02241   0.37500   Biso      1.000     Zn          1.061376 