
##########################################################################
#               Crystallographic Information Format file
#               Produced by PyCifRW module
#
#  This is a CIF file.  CIF has been adopted by the International
#  Union of Crystallography as the standard for data archiving and
#  transmission.
#
#  For information on this file format, follow the CIF links at
#  http://www.iucr.org
##########################################################################

data_image0

_cell_length_a                          20.3534
_cell_length_b                          20.3534
_cell_length_c                          13.9824
_cell_angle_alpha                       90
_cell_angle_beta                        90
_cell_angle_gamma                       90
_symmetry_space_group_name_H-M          'P 1'
_symmetry_int_tables_number             1
loop_
  _symmetry_equiv_pos_as_xyz
         'x, y, z' 
loop_
  _atom_site_label
  _atom_site_occupancy
  _atom_site_fract_x
  _atom_site_fract_y
  _atom_site_fract_z
  _atom_site_thermal_displace_type
  _atom_site_B_iso_or_equiv
  _atom_site_type_symbol
  _atom_site_charge
         C1        1.0000    0.51630   0.10320   0.20130   Biso      1.000     C          0.120223  
         C2        1.0000    0.48760   0.06540   0.37940   Biso      1.000     C          -0.145448           
         C3        1.0000    0.39680   0.98370   0.29870   Biso      1.000     C          0.120223  
         C4        1.0000    0.06540   0.48760   0.62060   Biso      1.000     C          -0.145448           
         C5        1.0000    0.89680   0.01630   0.45130   Biso      1.000     C          0.120223  
         C6        1.0000    0.98760   0.56540   0.87940   Biso      1.000     C          -0.145448           
         C7        1.0000    0.89680   0.48370   0.79870   Biso      1.000     C          0.120223  
         C8        1.0000    0.98760   0.93460   0.37060   Biso      1.000     C          -0.145448           
         C9        1.0000    0.01630   0.60320   0.70130   Biso      1.000     C          0.120223  
         C10       1.0000    0.01240   0.43460   0.87940   Biso      1.000     C          -0.145448           
         C11       1.0000    0.10320   0.51630   0.79870   Biso      1.000     C          0.120223  
         C12       1.0000    0.43460   0.01240   0.12060   Biso      1.000     C          -0.145448           
         C13       1.0000    0.39680   0.51630   0.95130   Biso      1.000     C          0.120223  
         C14       1.0000    0.51240   0.93460   0.37940   Biso      1.000     C          -0.145448           
         C15       1.0000    0.60320   0.01630   0.29870   Biso      1.000     C          0.120223  
         C16       1.0000    0.48760   0.43460   0.87060   Biso      1.000     C          -0.145448           
         C17       1.0000    0.93460   0.51240   0.62060   Biso      1.000     C          -0.145448           
         C18       1.0000    0.56540   0.51240   0.12940   Biso      1.000     C          -0.145448           
         C19       1.0000    0.01240   0.06540   0.37060   Biso      1.000     C          -0.145448           
         C20       1.0000    0.51630   0.39680   0.04870   Biso      1.000     C          0.120223  
         C21       1.0000    0.43460   0.48760   0.12940   Biso      1.000     C          -0.145448           
         C22       1.0000    0.10320   0.98370   0.45130   Biso      1.000     C          0.120223  
         C23       1.0000    0.01630   0.89680   0.54870   Biso      1.000     C          0.120223  
         C24       1.0000    0.98370   0.39680   0.70130   Biso      1.000     C          0.120223  
         C25       1.0000    0.93460   0.98760   0.62940   Biso      1.000     C          -0.145448           
         C26       1.0000    0.51240   0.56540   0.87060   Biso      1.000     C          -0.145448           
         C27       1.0000    0.98370   0.10320   0.54870   Biso      1.000     C          0.120223  
         C28       1.0000    0.06540   0.01240   0.62940   Biso      1.000     C          -0.145448           
         C29       1.0000    0.60320   0.48370   0.95130   Biso      1.000     C          0.120223  
         C30       1.0000    0.48370   0.89680   0.20130   Biso      1.000     C          0.120223  
         C31       1.0000    0.48370   0.60320   0.04870   Biso      1.000     C          0.120223  
         C32       1.0000    0.56540   0.98760   0.12060   Biso      1.000     C          -0.145448           
         N1        1.0000    0.02420   0.65550   0.67460   Biso      1.000     N          -0.405385           
         N2        1.0000    0.90240   0.51900   0.55630   Biso      1.000     N          -0.300625           
         N3        1.0000    0.52420   0.34450   0.07540   Biso      1.000     N          -0.405385           
         N4        1.0000    0.98100   0.90240   0.30630   Biso      1.000     N          -0.300625           
         N5        1.0000    0.34450   0.52420   0.92460   Biso      1.000     N          -0.405385           
         N6        1.0000    0.65550   0.47580   0.92460   Biso      1.000     N          -0.405385           
         N7        1.0000    0.51900   0.59760   0.80630   Biso      1.000     N          -0.300625           
         N8        1.0000    0.15550   0.97580   0.42460   Biso      1.000     N          -0.405385           
         N9        1.0000    0.01900   0.09760   0.30630   Biso      1.000     N          -0.300625           
         N10       1.0000    0.84450   0.02420   0.42460   Biso      1.000     N          -0.405385           
         N11       1.0000    0.48100   0.40240   0.80630   Biso      1.000     N          -0.300625           
         N12       1.0000    0.59760   0.98100   0.05630   Biso      1.000     N          -0.300625           
         N13       1.0000    0.52420   0.15550   0.17460   Biso      1.000     N          -0.405385           
         N14       1.0000    0.40240   0.48100   0.19370   Biso      1.000     N          -0.300625           
         N15       1.0000    0.02420   0.84450   0.57540   Biso      1.000     N          -0.405385           
         N16       1.0000    0.90240   0.98100   0.69370   Biso      1.000     N          -0.300625           
         N17       1.0000    0.97580   0.15550   0.57540   Biso      1.000     N          -0.405385           
         N18       1.0000    0.40240   0.01900   0.05630   Biso      1.000     N          -0.300625           
         N19       1.0000    0.47580   0.65550   0.07540   Biso      1.000     N          -0.405385           
         N20       1.0000    0.59760   0.51900   0.19370   Biso      1.000     N          -0.300625           
         N21       1.0000    0.65550   0.02420   0.32540   Biso      1.000     N          -0.405385           
         N22       1.0000    0.51900   0.90240   0.44370   Biso      1.000     N          -0.300625           
         N23       1.0000    0.09760   0.01900   0.69370   Biso      1.000     N          -0.300625           
         N24       1.0000    0.01900   0.40240   0.94370   Biso      1.000     N          -0.300625           
         N25       1.0000    0.84450   0.47580   0.82540   Biso      1.000     N          -0.405385           
         N26       1.0000    0.98100   0.59760   0.94370   Biso      1.000     N          -0.300625           
         N27       1.0000    0.34450   0.97580   0.32540   Biso      1.000     N          -0.405385           
         N28       1.0000    0.48100   0.09760   0.44370   Biso      1.000     N          -0.300625           
         N29       1.0000    0.97580   0.34450   0.67460   Biso      1.000     N          -0.405385           
         N30       1.0000    0.09760   0.48100   0.55630   Biso      1.000     N          -0.300625           
         N31       1.0000    0.47580   0.84450   0.17460   Biso      1.000     N          -0.405385           
         N32       1.0000    0.15550   0.52420   0.82540   Biso      1.000     N          -0.405385           
         Nb1       1.0000    0.00000   0.50000   0.75000   Biso      1.000     Nb          0.8110930000000001  
         Nb2       1.0000    0.50000   0.00000   0.25000   Biso      1.000     Nb          0.811092  
         Nb3       1.0000    0.00000   0.00000   0.50000   Biso      1.000     Nb          0.811092  
         Nb4       1.0000    0.50000   0.50000   0.00000   Biso      1.000     Nb          0.811092  
         Zn1       1.0000    0.75000   0.47768   0.87500   Biso      1.000     Zn          1.056923  
         Zn2       1.0000    0.52232   0.25000   0.12500   Biso      1.000     Zn          1.056923  
         Zn3       1.0000    0.02232   0.75000   0.62500   Biso      1.000     Zn          1.056923  
         Zn4       1.0000    0.97768   0.25000   0.62500   Biso      1.000     Zn          1.056923  
         Zn5       1.0000    0.47768   0.75000   0.12500   Biso      1.000     Zn          1.056923  
         Zn6       1.0000    0.75000   0.02232   0.37500   Biso      1.000     Zn          1.056923  
         Zn7       1.0000    0.25000   0.52232   0.87500   Biso      1.000     Zn          1.056923  
         Zn8       1.0000    0.25000   0.97768   0.37500   Biso      1.000     Zn          1.056923 