
##########################################################################
#               Crystallographic Information Format file
#               Produced by PyCifRW module
#
#  This is a CIF file.  CIF has been adopted by the International
#  Union of Crystallography as the standard for data archiving and
#  transmission.
#
#  For information on this file format, follow the CIF links at
#  http://www.iucr.org
##########################################################################

data_image0

_cell_length_a                          10.7765
_cell_length_b                          15.0683
_cell_length_c                          28.487
_cell_angle_alpha                       86.8973
_cell_angle_beta                        81.2941
_cell_angle_gamma                       69.0478
_symmetry_space_group_name_H-M          'P 1'
_symmetry_int_tables_number             1
loop_
  _symmetry_equiv_pos_as_xyz
         'x, y, z' 
loop_
  _atom_site_label
  _atom_site_occupancy
  _atom_site_fract_x
  _atom_site_fract_y
  _atom_site_fract_z
  _atom_site_thermal_displace_type
  _atom_site_B_iso_or_equiv
  _atom_site_type_symbol
  _atom_site_charge
         C1        1.0000    0.89860   0.84580   0.39380   Biso      1.000     C          -0.0969   
         C2        1.0000    0.41673   0.13294   0.44050   Biso      1.000     C          0.605337  
         C3        1.0000    0.38768   0.35224   0.36330   Biso      1.000     C          -0.24766100000000002          
         C4        1.0000    0.36403   0.21134   0.40640   Biso      1.000     C          -0.046435000000000004         
         C5        1.0000    0.26600   0.21480   0.38130   Biso      1.000     C          -0.077686           
         C6        1.0000    0.21940   0.28840   0.34650   Biso      1.000     C          -0.240722           
         C7        1.0000    0.28305   0.35550   0.34030   Biso      1.000     C          0.281854  
         C8        1.0000    0.86344   0.72112   0.33510   Biso      1.000     C          -0.260062           
         C9        1.0000    0.98602   0.72316   0.33280   Biso      1.000     C          0.28484699999999996           
         C10       1.0000    0.08316   0.60448   0.27241   Biso      1.000     C          -0.083442           
         C11       1.0000    0.42459   0.28042   0.39680   Biso      1.000     C          -0.06751599999999999          
         C12       1.0000    0.30270   0.48220   0.28912   Biso      1.000     C          -0.089792           
         C13       1.0000    0.66839   0.90082   0.43439   Biso      1.000     C          0.6181439999999999  
         C14       1.0000    0.01640   0.78680   0.35890   Biso      1.000     C          -0.241713           
         C15       1.0000    0.77421   0.83898   0.39830   Biso      1.000     C          -0.034217000000000004         
         C16       1.0000    0.75540   0.77960   0.36970   Biso      1.000     C          -0.070516           
         C17       1.0000    0.45033   0.13294   0.05950   Biso      1.000     C          0.599943  
         C18       1.0000    0.26008   0.35224   0.13670   Biso      1.000     C          -0.24285  
         C19       1.0000    0.46500   0.77960   0.13030   Biso      1.000     C          -0.072384           
         C20       1.0000    0.38681   0.83898   0.10170   Biso      1.000     C          -0.028797000000000003         
         C21       1.0000    0.25560   0.84580   0.10620   Biso      1.000     C          -0.09876  
         C22       1.0000    0.19680   0.78680   0.14110   Biso      1.000     C          -0.23994000000000001          
         C23       1.0000    0.43079   0.90082   0.06561   Biso      1.000     C          0.612158  
         C24       1.0000    0.21510   0.48220   0.21088   Biso      1.000     C          -0.083986           
         C25       1.0000    0.29499   0.28042   0.10320   Biso      1.000     C          -0.070201           
         C26       1.0000    0.31236   0.60448   0.22759   Biso      1.000     C          -0.081441           
         C27       1.0000    0.29082   0.72316   0.16720   Biso      1.000     C          0.283476  
         C28       1.0000    0.41544   0.72112   0.16490   Biso      1.000     C          -0.257932           
         C29       1.0000    0.36145   0.35550   0.15970   Biso      1.000     C          0.27863000000000004           
         C30       1.0000    0.49220   0.28840   0.15350   Biso      1.000     C          -0.239231           
         C31       1.0000    0.53500   0.22040   0.86970   Biso      1.000     C          -0.072379           
         C32       1.0000    0.61319   0.16102   0.89830   Biso      1.000     C          -0.028797000000000003         
         C33       1.0000    0.74440   0.15420   0.89380   Biso      1.000     C          -0.09876  
         C34       1.0000    0.80320   0.21320   0.85890   Biso      1.000     C          -0.239943           
         C35       1.0000    0.77220   0.45560   0.75000   Biso      1.000     C          0.080584  
         C36       1.0000    0.22780   0.54440   0.25000   Biso      1.000     C          0.080584  
         C37       1.0000    0.58327   0.86706   0.55950   Biso      1.000     C          0.605337  
         C38       1.0000    0.61232   0.64776   0.63670   Biso      1.000     C          -0.24766100000000002          
         C39       1.0000    0.63597   0.78866   0.59360   Biso      1.000     C          -0.046435000000000004         
         C40       1.0000    0.73400   0.78520   0.61870   Biso      1.000     C          -0.077686           
         C41       1.0000    0.78060   0.71160   0.65350   Biso      1.000     C          -0.240722           
         C42       1.0000    0.71695   0.64450   0.65970   Biso      1.000     C          0.281854  
         C43       1.0000    0.13656   0.27888   0.66490   Biso      1.000     C          -0.260062           
         C44       1.0000    0.01398   0.27684   0.66720   Biso      1.000     C          0.28484699999999996           
         C45       1.0000    0.91684   0.39552   0.72759   Biso      1.000     C          -0.083442           
         C46       1.0000    0.57541   0.71958   0.60320   Biso      1.000     C          -0.06751599999999999          
         C47       1.0000    0.69730   0.51780   0.71088   Biso      1.000     C          -0.089792           
         C48       1.0000    0.33161   0.09918   0.56561   Biso      1.000     C          0.618145  
         C49       1.0000    0.51920   0.21480   0.11870   Biso      1.000     C          -0.078587           
         C50       1.0000    0.98360   0.21320   0.64110   Biso      1.000     C          -0.24171399999999998          
         C51       1.0000    0.22579   0.16102   0.60170   Biso      1.000     C          -0.034222           
         C52       1.0000    0.24460   0.22040   0.63030   Biso      1.000     C          -0.070516           
         C53       1.0000    0.54967   0.86706   0.94050   Biso      1.000     C          0.599945  
         C54       1.0000    0.73992   0.64776   0.86330   Biso      1.000     C          -0.24285  
         C55       1.0000    0.57537   0.78866   0.90640   Biso      1.000     C          -0.044097000000000004         
         C56       1.0000    0.48080   0.78520   0.88130   Biso      1.000     C          -0.078568           
         C57       1.0000    0.50780   0.71160   0.84650   Biso      1.000     C          -0.239233           
         C58       1.0000    0.63855   0.64450   0.84030   Biso      1.000     C          0.27863000000000004           
         C59       1.0000    0.58456   0.27888   0.83510   Biso      1.000     C          -0.257968           
         C60       1.0000    0.70918   0.27684   0.83280   Biso      1.000     C          0.283509  
         C61       1.0000    0.68764   0.39552   0.77241   Biso      1.000     C          -0.08144  
         C62       1.0000    0.70501   0.71958   0.89680   Biso      1.000     C          -0.070199           
         C63       1.0000    0.78490   0.51780   0.78912   Biso      1.000     C          -0.083985           
         C64       1.0000    0.56921   0.09918   0.93439   Biso      1.000     C          0.612158  
         C65       1.0000    0.10140   0.15420   0.60620   Biso      1.000     C          -0.09689500000000001          
         C66       1.0000    0.42463   0.21134   0.09360   Biso      1.000     C          -0.044078           
         Cu1       1.0000    0.62216   0.96212   0.01088   Biso      1.000     Cu          0.8299139999999999  
         Cu2       1.0000    0.41572   0.96212   0.48912   Biso      1.000     Cu          0.8610389999999999  
         Cu3       1.0000    0.37784   0.03788   0.98912   Biso      1.000     Cu          0.829915  
         Cu4       1.0000    0.58428   0.03788   0.51088   Biso      1.000     Cu          0.861038  
         H1        1.0000    0.77300   0.83160   0.61360   Biso      1.000     H          0.12054400000000001           
         H2        1.0000    0.02970   0.63740   0.24800   Biso      1.000     H          0.098942  
         H3        1.0000    0.03980   0.56440   0.29040   Biso      1.000     H          0.098061  
         H4        1.0000    0.49280   0.27800   0.41390   Biso      1.000     H          0.1144    
         H5        1.0000    0.39470   0.44560   0.27630   Biso      1.000     H          0.096974  
         H6        1.0000    0.30330   0.52160   0.31490   Biso      1.000     H          0.099691  
         H7        1.0000    0.10060   0.79240   0.35520   Biso      1.000     H          0.15048399999999998           
         H8        1.0000    0.91150   0.88880   0.41300   Biso      1.000     H          0.118806  
         H9        1.0000    0.67080   0.77520   0.37180   Biso      1.000     H          0.11482   
         H10       1.0000    0.17290   0.39560   0.14320   Biso      1.000     H          0.136274  
         H11       1.0000    0.56850   0.60440   0.64320   Biso      1.000     H          0.137549  
         H12       1.0000    0.47130   0.68220   0.18550   Biso      1.000     H          0.127329  
         H13       1.0000    0.84650   0.68220   0.31450   Biso      1.000     H          0.127749  
         H14       1.0000    0.33290   0.63740   0.25200   Biso      1.000     H          0.097834  
         H15       1.0000    0.39580   0.56440   0.20960   Biso      1.000     H          0.09793099999999999           
         H16       1.0000    0.22920   0.27800   0.08610   Biso      1.000     H          0.11636700000000001           
         H17       1.0000    0.15970   0.44560   0.22370   Biso      1.000     H          0.097448  
         H18       1.0000    0.17510   0.52160   0.18510   Biso      1.000     H          0.095903  
         H19       1.0000    0.10700   0.79240   0.14480   Biso      1.000     H          0.150594  
         H20       1.0000    0.19970   0.88880   0.08700   Biso      1.000     H          0.12005899999999999           
         H21       1.0000    0.55400   0.77520   0.12820   Biso      1.000     H          0.115452  
         H22       1.0000    0.55760   0.29100   0.17070   Biso      1.000     H          0.147071  
         H23       1.0000    0.15140   0.29100   0.32930   Biso      1.000     H          0.14698699999999998           
         H24       1.0000    0.60460   0.16840   0.11360   Biso      1.000     H          0.121064  
         H25       1.0000    0.43150   0.39560   0.35680   Biso      1.000     H          0.137549  
         H26       1.0000    0.22700   0.16840   0.38640   Biso      1.000     H          0.120545  
         H27       1.0000    0.15350   0.31780   0.68550   Biso      1.000     H          0.127749  
         H28       1.0000    0.97030   0.36260   0.75200   Biso      1.000     H          0.098942  
         H29       1.0000    0.96020   0.43560   0.70960   Biso      1.000     H          0.098061  
         H30       1.0000    0.50720   0.72200   0.58610   Biso      1.000     H          0.114399  
         H31       1.0000    0.60530   0.55440   0.72370   Biso      1.000     H          0.096974  
         H32       1.0000    0.69670   0.47840   0.68510   Biso      1.000     H          0.099691  
         H33       1.0000    0.89940   0.20760   0.64480   Biso      1.000     H          0.15048399999999998           
         H34       1.0000    0.08850   0.11120   0.58700   Biso      1.000     H          0.118806  
         H35       1.0000    0.32920   0.22480   0.62820   Biso      1.000     H          0.11482   
         H36       1.0000    0.82710   0.60440   0.85680   Biso      1.000     H          0.136274  
         H37       1.0000    0.84860   0.70900   0.67070   Biso      1.000     H          0.14698699999999998           
         H38       1.0000    0.44240   0.70900   0.82930   Biso      1.000     H          0.147071  
         H39       1.0000    0.39540   0.83160   0.88640   Biso      1.000     H          0.12106199999999999           
         H40       1.0000    0.80030   0.11120   0.91300   Biso      1.000     H          0.12005899999999999           
         H41       1.0000    0.89300   0.20760   0.85520   Biso      1.000     H          0.150594  
         H42       1.0000    0.82490   0.47840   0.81490   Biso      1.000     H          0.095903  
         H43       1.0000    0.44600   0.22480   0.87180   Biso      1.000     H          0.115451  
         H44       1.0000    0.77080   0.72200   0.91390   Biso      1.000     H          0.11636600000000001           
         H45       1.0000    0.60420   0.43560   0.79040   Biso      1.000     H          0.097932  
         H46       1.0000    0.66710   0.36260   0.74800   Biso      1.000     H          0.097834  
         H47       1.0000    0.52870   0.31780   0.81450   Biso      1.000     H          0.127331  
         H48       1.0000    0.84030   0.55440   0.77630   Biso      1.000     H          0.097448  
         O1        1.0000    0.49529   0.86482   0.53640   Biso      1.000     O          -0.537105           
         O2        1.0000    0.65762   0.04436   0.95754   Biso      1.000     O          -0.539744           
         O3        1.0000    0.63839   0.93002   0.55487   Biso      1.000     O          -0.546554           
         O4        1.0000    0.44190   0.10800   0.56122   Biso      1.000     O          -0.523271           
         O5        1.0000    0.29802   0.04436   0.54246   Biso      1.000     O          -0.547502           
         O6        1.0000    0.65094   0.57972   0.80562   Biso      1.000     O          -0.205589           
         O7        1.0000    0.76977   0.32886   0.80302   Biso      1.000     O          -0.201075           
         O8        1.0000    0.63989   0.86482   0.96360   Biso      1.000     O          -0.528663           
         O9        1.0000    0.43159   0.93002   0.94513   Biso      1.000     O          -0.539511           
         O10       1.0000    0.45010   0.10800   0.93878   Biso      1.000     O          -0.514324           
         O11       1.0000    0.23066   0.42028   0.30562   Biso      1.000     O          -0.20542600000000003          
         O12       1.0000    0.70198   0.95564   0.45754   Biso      1.000     O          -0.547502           
         O13       1.0000    0.50471   0.13518   0.46360   Biso      1.000     O          -0.537105           
         O14       1.0000    0.36161   0.06998   0.44513   Biso      1.000     O          -0.546554           
         O15       1.0000    0.55810   0.89200   0.43878   Biso      1.000     O          -0.523271           
         O16       1.0000    0.34906   0.42028   0.19438   Biso      1.000     O          -0.205589           
         O17       1.0000    0.23023   0.67114   0.19698   Biso      1.000     O          -0.201073           
         O18       1.0000    0.36011   0.13518   0.03640   Biso      1.000     O          -0.528663           
         O19       1.0000    0.56841   0.06998   0.05487   Biso      1.000     O          -0.53951  
         O20       1.0000    0.54990   0.89200   0.06122   Biso      1.000     O          -0.514323           
         O21       1.0000    0.34238   0.95564   0.04246   Biso      1.000     O          -0.539744           
         O22       1.0000    0.90137   0.32886   0.69698   Biso      1.000     O          -0.200648           
         O23       1.0000    0.09863   0.67114   0.30302   Biso      1.000     O          -0.200648           
         O24       1.0000    0.76934   0.57972   0.69438   Biso      1.000     O          -0.20542600000000003 