
##########################################################################
#               Crystallographic Information Format file
#               Produced by PyCifRW module
#
#  This is a CIF file.  CIF has been adopted by the International
#  Union of Crystallography as the standard for data archiving and
#  transmission.
#
#  For information on this file format, follow the CIF links at
#  http://www.iucr.org
##########################################################################

data_image0

_cell_length_a                          11.288
_cell_length_b                          12.645
_cell_length_c                          14.725
_cell_angle_alpha                       90
_cell_angle_beta                        90
_cell_angle_gamma                       90
_symmetry_space_group_name_H-M          'P 1'
_symmetry_int_tables_number             1
loop_
  _symmetry_equiv_pos_as_xyz
         'x, y, z' 
loop_
  _atom_site_label
  _atom_site_occupancy
  _atom_site_fract_x
  _atom_site_fract_y
  _atom_site_fract_z
  _atom_site_thermal_displace_type
  _atom_site_B_iso_or_equiv
  _atom_site_type_symbol
  _atom_site_charge
         C1        1.0000    0.38050   0.45100   0.36310   Biso      1.000     C          -0.563852           
         C2        1.0000    0.07290   0.05240   0.40415   Biso      1.000     C          0.743765  
         C3        1.0000    0.11950   0.95100   0.36310   Biso      1.000     C          -0.563852           
         C4        1.0000    0.19830   0.88539   0.42450   Biso      1.000     C          0.792469  
         C5        1.0000    0.47000   0.01350   0.33201   Biso      1.000     C          0.761433  
         C6        1.0000    0.57290   0.44760   0.59585   Biso      1.000     C          0.743765  
         C7        1.0000    0.61950   0.54900   0.63690   Biso      1.000     C          -0.563852           
         C8        1.0000    0.69830   0.61461   0.57550   Biso      1.000     C          0.79247   
         C9        1.0000    0.92710   0.05240   0.09585   Biso      1.000     C          0.743765  
         C10       1.0000    0.88050   0.95100   0.13690   Biso      1.000     C          -0.563852           
         C11       1.0000    0.80170   0.88539   0.07550   Biso      1.000     C          0.792469  
         C12       1.0000    0.53000   0.01350   0.16799   Biso      1.000     C          0.761433  
         C13       1.0000    0.57290   0.55240   0.09585   Biso      1.000     C          0.743765  
         C14       1.0000    0.61950   0.45100   0.13690   Biso      1.000     C          -0.563852           
         C15       1.0000    0.69830   0.38539   0.07550   Biso      1.000     C          0.792469  
         C16       1.0000    0.03000   0.48650   0.83201   Biso      1.000     C          0.761433  
         C17       1.0000    0.97000   0.51350   0.16799   Biso      1.000     C          0.761433  
         C18       1.0000    0.88050   0.04900   0.63690   Biso      1.000     C          -0.563852           
         C19       1.0000    0.80170   0.11461   0.57550   Biso      1.000     C          0.792469  
         C20       1.0000    0.53000   0.98650   0.66799   Biso      1.000     C          0.761433  
         C21       1.0000    0.42710   0.55240   0.40415   Biso      1.000     C          0.743765  
         C22       1.0000    0.30170   0.38539   0.42450   Biso      1.000     C          0.792469  
         C23       1.0000    0.03000   0.51350   0.33201   Biso      1.000     C          0.761433  
         C24       1.0000    0.07290   0.94760   0.90415   Biso      1.000     C          0.743765  
         C25       1.0000    0.11950   0.04900   0.86310   Biso      1.000     C          -0.563851           
         C26       1.0000    0.19830   0.11461   0.92450   Biso      1.000     C          0.792469  
         C27       1.0000    0.47000   0.98650   0.83201   Biso      1.000     C          0.761433  
         C28       1.0000    0.00000   0.55180   0.75000   Biso      1.000     C          -0.5655100000000001           
         C29       1.0000    0.50000   0.94820   0.25000   Biso      1.000     C          -0.5655100000000001           
         C30       1.0000    0.00000   0.44820   0.25000   Biso      1.000     C          -0.5655100000000001           
         C31       1.0000    0.50000   0.05180   0.75000   Biso      1.000     C          -0.5655100000000001           
         C32       1.0000    0.92710   0.94760   0.59585   Biso      1.000     C          0.743765  
         C33       1.0000    0.30170   0.61461   0.92450   Biso      1.000     C          0.79247   
         C34       1.0000    0.97000   0.48650   0.66799   Biso      1.000     C          0.761433  
         C35       1.0000    0.42710   0.44760   0.90415   Biso      1.000     C          0.743765  
         C36       1.0000    0.38050   0.54900   0.86310   Biso      1.000     C          -0.563852           
         H1        1.0000    0.43700   0.58700   0.84800   Biso      1.000     H          0.18902   
         H2        1.0000    0.33100   0.52600   0.80900   Biso      1.000     H          0.182275  
         H3        1.0000    0.55500   0.90300   0.26200   Biso      1.000     H          0.202502  
         H4        1.0000    0.06300   0.91300   0.34800   Biso      1.000     H          0.18902   
         H5        1.0000    0.16900   0.97400   0.30900   Biso      1.000     H          0.182275  
         H6        1.0000    0.05500   0.59700   0.73800   Biso      1.000     H          0.202502  
         H7        1.0000    0.56300   0.58700   0.65200   Biso      1.000     H          0.18902   
         H8        1.0000    0.66900   0.52600   0.69100   Biso      1.000     H          0.182275  
         H9        1.0000    0.44500   0.90300   0.23800   Biso      1.000     H          0.202502  
         H10       1.0000    0.93700   0.91300   0.15200   Biso      1.000     H          0.18902   
         H11       1.0000    0.83100   0.97400   0.19100   Biso      1.000     H          0.182275  
         H12       1.0000    0.94500   0.59700   0.76200   Biso      1.000     H          0.202502  
         H13       1.0000    0.56300   0.41300   0.15200   Biso      1.000     H          0.18902   
         H14       1.0000    0.05500   0.40300   0.23800   Biso      1.000     H          0.202502  
         H15       1.0000    0.16900   0.02600   0.80900   Biso      1.000     H          0.182274  
         H16       1.0000    0.55500   0.09700   0.76200   Biso      1.000     H          0.202502  
         H17       1.0000    0.33100   0.47400   0.30900   Biso      1.000     H          0.182275  
         H18       1.0000    0.43700   0.41300   0.34800   Biso      1.000     H          0.18902   
         H19       1.0000    0.06300   0.08700   0.84800   Biso      1.000     H          0.18902   
         H20       1.0000    0.83100   0.02600   0.69100   Biso      1.000     H          0.182275  
         H21       1.0000    0.93700   0.08700   0.65200   Biso      1.000     H          0.18902   
         H22       1.0000    0.66900   0.47400   0.19100   Biso      1.000     H          0.182275  
         H23       1.0000    0.44500   0.09700   0.73800   Biso      1.000     H          0.202502  
         H24       1.0000    0.94500   0.40300   0.26200   Biso      1.000     H          0.202502  
         O1        1.0000    0.85451   0.88271   0.56290   Biso      1.000     O          -0.761432           
         O2        1.0000    0.46409   0.56877   0.09781   Biso      1.000     O          -0.60773  
         O3        1.0000    0.89590   0.58689   0.17451   Biso      1.000     O          -0.59741  
         O4        1.0000    0.01478   0.49135   0.09166   Biso      1.000     O          -0.789798           
         O5        1.0000    0.68278   0.28819   0.07378   Biso      1.000     O          -0.708957           
         O6        1.0000    0.64549   0.61729   0.06290   Biso      1.000     O          -0.761432           
         O7        1.0000    0.03591   0.06877   0.09781   Biso      1.000     O          -0.60773  
         O8        1.0000    0.81722   0.21181   0.57378   Biso      1.000     O          -0.708956           
         O9        1.0000    0.48522   0.99135   0.09166   Biso      1.000     O          -0.789798           
         O10       1.0000    0.60410   0.08689   0.17451   Biso      1.000     O          -0.59741  
         O11       1.0000    0.77900   0.43230   0.03154   Biso      1.000     O          -0.722941           
         O12       1.0000    0.72100   0.06770   0.53154   Biso      1.000     O          -0.722941           
         O13       1.0000    0.51478   0.00865   0.90834   Biso      1.000     O          -0.789798           
         O14       1.0000    0.60410   0.91311   0.67451   Biso      1.000     O          -0.59741  
         O15       1.0000    0.03591   0.93123   0.59781   Biso      1.000     O          -0.607729           
         O16       1.0000    0.35451   0.61729   0.43710   Biso      1.000     O          -0.761432           
         O17       1.0000    0.31722   0.28819   0.42622   Biso      1.000     O          -0.708957           
         O18       1.0000    0.27900   0.06770   0.96846   Biso      1.000     O          -0.722941           
         O19       1.0000    0.18278   0.21181   0.92622   Biso      1.000     O          -0.708957           
         O20       1.0000    0.14549   0.88271   0.93710   Biso      1.000     O          -0.761432           
         O21       1.0000    0.53591   0.56877   0.40219   Biso      1.000     O          -0.607729           
         O22       1.0000    0.10410   0.58689   0.32549   Biso      1.000     O          -0.59741  
         O23       1.0000    0.98522   0.49135   0.40834   Biso      1.000     O          -0.789798           
         O24       1.0000    0.22100   0.43230   0.46846   Biso      1.000     O          -0.722941           
         O25       1.0000    0.72100   0.93230   0.03154   Biso      1.000     O          -0.722941           
         O26       1.0000    0.48522   0.00865   0.59166   Biso      1.000     O          -0.789798           
         O27       1.0000    0.81722   0.78819   0.07378   Biso      1.000     O          -0.708957           
         O28       1.0000    0.96409   0.93123   0.90219   Biso      1.000     O          -0.60773  
         O29       1.0000    0.46409   0.43123   0.59781   Biso      1.000     O          -0.607729           
         O30       1.0000    0.39590   0.91311   0.82549   Biso      1.000     O          -0.59741  
         O31       1.0000    0.35451   0.38271   0.93710   Biso      1.000     O          -0.761432           
         O32       1.0000    0.31722   0.71181   0.92622   Biso      1.000     O          -0.708957           
         O33       1.0000    0.22100   0.56770   0.96846   Biso      1.000     O          -0.722941           
         O34       1.0000    0.98522   0.50865   0.90834   Biso      1.000     O          -0.789798           
         O35       1.0000    0.85451   0.11729   0.06290   Biso      1.000     O          -0.761432           
         O36       1.0000    0.53591   0.43123   0.90219   Biso      1.000     O          -0.60773  
         O37       1.0000    0.14549   0.11729   0.43710   Biso      1.000     O          -0.761432           
         O38       1.0000    0.18278   0.78819   0.42622   Biso      1.000     O          -0.708957           
         O39       1.0000    0.10410   0.41311   0.82549   Biso      1.000     O          -0.59741  
         O40       1.0000    0.51478   0.99135   0.40834   Biso      1.000     O          -0.789798           
         O41       1.0000    0.39590   0.08689   0.32549   Biso      1.000     O          -0.59741  
         O42       1.0000    0.96409   0.06877   0.40219   Biso      1.000     O          -0.607729           
         O43       1.0000    0.64549   0.38271   0.56290   Biso      1.000     O          -0.761432           
         O44       1.0000    0.68278   0.71181   0.57378   Biso      1.000     O          -0.708957           
         O45       1.0000    0.77900   0.56770   0.53154   Biso      1.000     O          -0.722941           
         O46       1.0000    0.01478   0.50865   0.59166   Biso      1.000     O          -0.789798           
         O47       1.0000    0.89590   0.41311   0.67451   Biso      1.000     O          -0.59741  
         O48       1.0000    0.27900   0.93230   0.46846   Biso      1.000     O          -0.722941           
         Pr1       1.0000    0.35064   0.11456   0.49286   Biso      1.000     Pr          2.16341   
         Pr2       1.0000    0.85064   0.38544   0.50714   Biso      1.000     Pr          2.16341   
         Pr3       1.0000    0.64936   0.11456   0.00714   Biso      1.000     Pr          2.163409  
         Pr4       1.0000    0.35064   0.88544   0.99286   Biso      1.000     Pr          2.16341   
         Pr5       1.0000    0.64936   0.88544   0.50714   Biso      1.000     Pr          2.163411  
         Pr6       1.0000    0.14936   0.61456   0.49286   Biso      1.000     Pr          2.163411  
         Pr7       1.0000    0.85064   0.61456   0.00714   Biso      1.000     Pr          2.16341   
         Pr8       1.0000    0.14936   0.38544   0.99286   Biso      1.000     Pr          2.163409 