
##########################################################################
#               Crystallographic Information Format file
#               Produced by PyCifRW module
#
#  This is a CIF file.  CIF has been adopted by the International
#  Union of Crystallography as the standard for data archiving and
#  transmission.
#
#  For information on this file format, follow the CIF links at
#  http://www.iucr.org
##########################################################################

data_image0

_cell_length_a                          6.907
_cell_length_b                          21.897
_cell_length_c                          23.151
_cell_angle_alpha                       90
_cell_angle_beta                        90
_cell_angle_gamma                       90
_symmetry_space_group_name_H-M          'P 1'
_symmetry_int_tables_number             1
loop_
  _symmetry_equiv_pos_as_xyz
         'x, y, z' 
loop_
  _atom_site_label
  _atom_site_occupancy
  _atom_site_fract_x
  _atom_site_fract_y
  _atom_site_fract_z
  _atom_site_thermal_displace_type
  _atom_site_B_iso_or_equiv
  _atom_site_type_symbol
  _atom_site_charge
         C1        1.0000    0.46410   0.06260   0.50200   Biso      1.000     C          -0.086617           
         C2        1.0000    0.03590   0.56260   0.50200   Biso      1.000     C          -0.059664           
         C3        1.0000    0.93720   0.53730   0.45590   Biso      1.000     C          0.062175  
         C4        1.0000    0.10200   0.52500   0.54660   Biso      1.000     C          -0.069533           
         C5        1.0000    0.06870   0.63030   0.50680   Biso      1.000     C          0.684596  
         C6        1.0000    0.42900   0.81460   0.81960   Biso      1.000     C          0.066385  
         C7        1.0000    0.41470   0.70690   0.83250   Biso      1.000     C          -0.106743           
         C8        1.0000    0.42350   0.76530   0.85620   Biso      1.000     C          -0.059681           
         C9        1.0000    0.42700   0.76850   0.92150   Biso      1.000     C          0.67855   
         C10       1.0000    0.41320   0.69980   0.77290   Biso      1.000     C          -0.065976           
         C11       1.0000    0.42930   0.80820   0.76020   Biso      1.000     C          -0.130108           
         C12       1.0000    0.42050   0.75030   0.73660   Biso      1.000     C          -0.004955           
         C13       1.0000    0.41760   0.74230   0.67260   Biso      1.000     C          0.569905  
         C14       1.0000    0.43720   0.96270   0.54410   Biso      1.000     C          0.037404  
         C15       1.0000    0.56280   0.03730   0.45590   Biso      1.000     C          0.037406  
         C16       1.0000    0.08240   0.25770   0.17260   Biso      1.000     C          0.570721  
         C17       1.0000    0.39800   0.02500   0.54660   Biso      1.000     C          0.02672   
         C18       1.0000    0.07100   0.31460   0.81960   Biso      1.000     C          0.06663   
         C19       1.0000    0.08530   0.20690   0.83250   Biso      1.000     C          -0.106353           
         C20       1.0000    0.07650   0.26530   0.85620   Biso      1.000     C          -0.059081           
         C21       1.0000    0.07300   0.26850   0.92150   Biso      1.000     C          0.678201  
         C22       1.0000    0.08680   0.19980   0.77290   Biso      1.000     C          -0.066173           
         C23       1.0000    0.07070   0.30820   0.76020   Biso      1.000     C          -0.130413           
         C24       1.0000    0.07950   0.25030   0.73660   Biso      1.000     C          -0.005654           
         C25       1.0000    0.08240   0.24230   0.67260   Biso      1.000     C          0.570721  
         C26       1.0000    0.03590   0.93740   0.00200   Biso      1.000     C          -0.086625           
         C27       1.0000    0.93720   0.96270   0.95590   Biso      1.000     C          0.037369  
         C28       1.0000    0.10200   0.97500   0.04660   Biso      1.000     C          0.026807  
         C29       1.0000    0.06870   0.86970   0.00680   Biso      1.000     C          0.680923  
         C30       1.0000    0.42900   0.68540   0.31960   Biso      1.000     C          0.065654  
         C31       1.0000    0.41470   0.79310   0.33250   Biso      1.000     C          -0.106556           
         C32       1.0000    0.43130   0.13030   0.50680   Biso      1.000     C          0.680946  
         C33       1.0000    0.42350   0.73470   0.35620   Biso      1.000     C          -0.059561           
         C34       1.0000    0.07950   0.24970   0.23660   Biso      1.000     C          -0.005553           
         C35       1.0000    0.08680   0.30020   0.27290   Biso      1.000     C          -0.065787           
         C36       1.0000    0.60200   0.97500   0.45340   Biso      1.000     C          0.026686  
         C37       1.0000    0.56870   0.86970   0.49320   Biso      1.000     C          0.680947  
         C38       1.0000    0.92900   0.68540   0.18040   Biso      1.000     C          0.06663   
         C39       1.0000    0.91470   0.79310   0.16750   Biso      1.000     C          -0.106355           
         C40       1.0000    0.92350   0.73470   0.14380   Biso      1.000     C          -0.059081           
         C41       1.0000    0.92700   0.73150   0.07850   Biso      1.000     C          0.678201  
         C42       1.0000    0.91320   0.80020   0.22710   Biso      1.000     C          -0.066173           
         C43       1.0000    0.92930   0.69180   0.23980   Biso      1.000     C          -0.130413           
         C44       1.0000    0.92050   0.74970   0.26340   Biso      1.000     C          -0.005653           
         C45       1.0000    0.91760   0.75770   0.32740   Biso      1.000     C          0.57072   
         C46       1.0000    0.96410   0.06260   0.99800   Biso      1.000     C          -0.086625           
         C47       1.0000    0.06280   0.03730   0.04410   Biso      1.000     C          0.037369  
         C48       1.0000    0.89800   0.02500   0.95340   Biso      1.000     C          0.026799  
         C49       1.0000    0.93130   0.13030   0.99320   Biso      1.000     C          0.680925  
         C50       1.0000    0.07070   0.19180   0.26020   Biso      1.000     C          -0.130277           
         C51       1.0000    0.57100   0.31460   0.68040   Biso      1.000     C          0.065654  
         C52       1.0000    0.57650   0.26530   0.64380   Biso      1.000     C          -0.059561           
         C53       1.0000    0.57300   0.26850   0.57850   Biso      1.000     C          0.678192  
         C54       1.0000    0.58680   0.19980   0.72710   Biso      1.000     C          -0.066041           
         C55       1.0000    0.57070   0.30820   0.73980   Biso      1.000     C          -0.130151           
         C56       1.0000    0.57950   0.25030   0.76340   Biso      1.000     C          -0.005117           
         C57       1.0000    0.58240   0.24230   0.82740   Biso      1.000     C          0.570352  
         C58       1.0000    0.46410   0.43740   0.00200   Biso      1.000     C          -0.08663  
         C59       1.0000    0.56280   0.46270   0.95590   Biso      1.000     C          0.037267  
         C60       1.0000    0.39800   0.47500   0.04660   Biso      1.000     C          0.027249  
         C61       1.0000    0.43130   0.36970   0.00680   Biso      1.000     C          0.680876  
         C62       1.0000    0.07100   0.18540   0.31960   Biso      1.000     C          0.066306  
         C63       1.0000    0.08530   0.29310   0.33250   Biso      1.000     C          -0.10555  
         C64       1.0000    0.07650   0.23470   0.35620   Biso      1.000     C          -0.059587           
         C65       1.0000    0.07300   0.23150   0.42150   Biso      1.000     C          0.678891  
         C66       1.0000    0.58530   0.20690   0.66750   Biso      1.000     C          -0.106555           
         C67       1.0000    0.42700   0.73150   0.42150   Biso      1.000     C          0.678192  
         C68       1.0000    0.53590   0.93740   0.49800   Biso      1.000     C          -0.086612           
         C69       1.0000    0.91760   0.74230   0.82740   Biso      1.000     C          0.570721  
         C70       1.0000    0.92050   0.75030   0.76340   Biso      1.000     C          -0.005552           
         C71       1.0000    0.57100   0.18540   0.18040   Biso      1.000     C          0.066385  
         C72       1.0000    0.89800   0.47500   0.45340   Biso      1.000     C          -0.069529           
         C73       1.0000    0.06280   0.46270   0.54410   Biso      1.000     C          0.062175  
         C74       1.0000    0.56870   0.63030   0.99320   Biso      1.000     C          0.680875  
         C75       1.0000    0.60200   0.52500   0.95340   Biso      1.000     C          0.027247  
         C76       1.0000    0.43720   0.53730   0.04410   Biso      1.000     C          0.037266  
         C77       1.0000    0.96410   0.43740   0.49800   Biso      1.000     C          -0.059663           
         C78       1.0000    0.53590   0.56260   0.99800   Biso      1.000     C          -0.086627           
         C79       1.0000    0.92900   0.81460   0.68040   Biso      1.000     C          0.066307  
         C80       1.0000    0.58530   0.29310   0.16750   Biso      1.000     C          -0.106744           
         C81       1.0000    0.57650   0.23470   0.14380   Biso      1.000     C          -0.059681           
         C82       1.0000    0.57300   0.23150   0.07850   Biso      1.000     C          0.678551  
         C83       1.0000    0.91470   0.70690   0.66750   Biso      1.000     C          -0.105552           
         C84       1.0000    0.93130   0.36970   0.49320   Biso      1.000     C          0.684596  
         C85       1.0000    0.58680   0.30020   0.22710   Biso      1.000     C          -0.065975           
         C86       1.0000    0.91320   0.69980   0.72710   Biso      1.000     C          -0.065786           
         C87       1.0000    0.57070   0.19180   0.23980   Biso      1.000     C          -0.130107           
         C88       1.0000    0.57950   0.24970   0.26340   Biso      1.000     C          -0.004955           
         C89       1.0000    0.92700   0.76850   0.57850   Biso      1.000     C          0.67889   
         C90       1.0000    0.58240   0.25770   0.32740   Biso      1.000     C          0.569905  
         C91       1.0000    0.92930   0.80820   0.73980   Biso      1.000     C          -0.130278           
         C92       1.0000    0.42930   0.69180   0.26020   Biso      1.000     C          -0.130151           
         C93       1.0000    0.42050   0.74970   0.23660   Biso      1.000     C          -0.005117           
         C94       1.0000    0.41760   0.75770   0.17260   Biso      1.000     C          0.570352  
         C95       1.0000    0.92350   0.76530   0.64380   Biso      1.000     C          -0.059586           
         C96       1.0000    0.41320   0.80020   0.27290   Biso      1.000     C          -0.066039           
         H1        1.0000    0.93540   0.84240   0.76360   Biso      1.000     H          0.146219  
         H2        1.0000    0.40720   0.66080   0.75710   Biso      1.000     H          0.134276  
         H3        1.0000    0.09280   0.33920   0.25710   Biso      1.000     H          0.13413   
         H4        1.0000    0.09010   0.32710   0.35640   Biso      1.000     H          0.131191  
         H5        1.0000    0.40990   0.67290   0.85640   Biso      1.000     H          0.130255  
         H6        1.0000    0.90720   0.66080   0.74290   Biso      1.000     H          0.134133  
         H7        1.0000    0.90990   0.67290   0.64360   Biso      1.000     H          0.131191  
         H8        1.0000    0.43540   0.84240   0.73640   Biso      1.000     H          0.146284  
         H9        1.0000    0.06460   0.15760   0.23640   Biso      1.000     H          0.146217  
         H10       1.0000    0.56460   0.34240   0.76360   Biso      1.000     H          0.146346  
         H11       1.0000    0.40720   0.83920   0.25710   Biso      1.000     H          0.134089  
         H12       1.0000    0.59280   0.33920   0.24290   Biso      1.000     H          0.134273  
         H13       1.0000    0.43540   0.65760   0.23640   Biso      1.000     H          0.146347  
         H14       1.0000    0.40990   0.82710   0.35640   Biso      1.000     H          0.130514  
         H15       1.0000    0.90990   0.82710   0.14360   Biso      1.000     H          0.1305    
         H16       1.0000    0.90720   0.83920   0.24290   Biso      1.000     H          0.134039  
         H17       1.0000    0.93540   0.65760   0.26360   Biso      1.000     H          0.145917  
         H18       1.0000    0.56460   0.15760   0.26360   Biso      1.000     H          0.146283  
         H19       1.0000    0.59010   0.17290   0.64360   Biso      1.000     H          0.130514  
         H20       1.0000    0.06460   0.34240   0.73640   Biso      1.000     H          0.145917  
         H21       1.0000    0.09280   0.16080   0.75710   Biso      1.000     H          0.134038  
         H22       1.0000    0.59280   0.16080   0.74290   Biso      1.000     H          0.134087  
         H23       1.0000    0.09010   0.17290   0.85640   Biso      1.000     H          0.130499  
         H24       1.0000    0.59010   0.32710   0.14360   Biso      1.000     H          0.130256  
         N1        1.0000    0.59760   0.43080   0.90050   Biso      1.000     N          0.537353  
         N2        1.0000    0.09760   0.43080   0.59950   Biso      1.000     N          0.537351  
         N3        1.0000    0.40240   0.56920   0.09950   Biso      1.000     N          0.537353  
         N4        1.0000    0.40240   0.93080   0.59950   Biso      1.000     N          0.537064  
         N5        1.0000    0.90240   0.56920   0.40050   Biso      1.000     N          0.537351  
         N6        1.0000    0.43170   0.87610   0.84380   Biso      1.000     N          0.53904   
         N7        1.0000    0.93170   0.62390   0.15620   Biso      1.000     N          0.538776  
         N8        1.0000    0.43170   0.62390   0.34380   Biso      1.000     N          0.53754   
         N9        1.0000    0.90240   0.93080   0.90050   Biso      1.000     N          0.53711   
         N10       1.0000    0.93170   0.87610   0.65620   Biso      1.000     N          0.539095  
         N11       1.0000    0.06830   0.37610   0.84380   Biso      1.000     N          0.538777  
         N12       1.0000    0.59760   0.06920   0.40050   Biso      1.000     N          0.537066  
         N13       1.0000    0.09760   0.06920   0.09950   Biso      1.000     N          0.537109  
         N14       1.0000    0.56830   0.37610   0.65620   Biso      1.000     N          0.537541  
         N15       1.0000    0.06830   0.12390   0.34380   Biso      1.000     N          0.539095  
         N16       1.0000    0.56830   0.12390   0.15620   Biso      1.000     N          0.53904   
         Nd1       1.0000    0.57830   0.23157   0.94936   Biso      1.000     Nd          2.140992  
         Nd2       1.0000    0.92170   0.76843   0.44936   Biso      1.000     Nd          2.141869  
         Nd3       1.0000    0.07830   0.26843   0.05064   Biso      1.000     Nd          2.140914  
         Nd4       1.0000    0.92170   0.73157   0.94936   Biso      1.000     Nd          2.140908  
         Nd5       1.0000    0.57830   0.26843   0.44936   Biso      1.000     Nd          2.141704  
         Nd6       1.0000    0.42170   0.76843   0.05064   Biso      1.000     Nd          2.140995  
         Nd7       1.0000    0.42170   0.73157   0.55064   Biso      1.000     Nd          2.141703  
         Nd8       1.0000    0.07830   0.23157   0.55064   Biso      1.000     Nd          2.141872  
         O1        1.0000    0.77160   0.73946   0.05149   Biso      1.000     O          -0.732855           
         O2        1.0000    0.08500   0.72452   0.05241   Biso      1.000     O          -0.708871           
         O3        1.0000    0.70180   0.85142   0.46075   Biso      1.000     O          -0.673048           
         O4        1.0000    0.93360   0.71088   0.35873   Biso      1.000     O          -0.619937           
         O5        1.0000    0.89940   0.81026   0.34950   Biso      1.000     O          -0.654463           
         O6        1.0000    0.10060   0.18974   0.65050   Biso      1.000     O          -0.654465           
         O7        1.0000    0.06640   0.28912   0.64127   Biso      1.000     O          -0.619937           
         O8        1.0000    0.10060   0.31026   0.15050   Biso      1.000     O          -0.656103           
         O9        1.0000    0.22840   0.26054   0.94851   Biso      1.000     O          -0.732855           
         O10       1.0000    0.26300   0.07550   0.11070   Biso      1.000     O          -0.270881           
         O11       1.0000    0.96100   0.08630   0.12970   Biso      1.000     O          -0.294146           
         O12       1.0000    0.54940   0.16375   0.47969   Biso      1.000     O          -0.640135           
         O13       1.0000    0.43360   0.71088   0.14127   Biso      1.000     O          -0.619156           
         O14       1.0000    0.53500   0.41740   0.68870   Biso      1.000     O          -0.310422           
         O15       1.0000    0.60210   0.38300   0.60500   Biso      1.000     O          -0.325052           
         O16       1.0000    0.39940   0.81026   0.15050   Biso      1.000     O          -0.655897           
         O17       1.0000    0.91500   0.27548   0.94759   Biso      1.000     O          -0.708871           
         O18       1.0000    0.29820   0.14858   0.53925   Biso      1.000     O          -0.673053           
         O19       1.0000    0.45060   0.83625   0.52031   Biso      1.000     O          -0.64014  
         O20       1.0000    0.58500   0.72452   0.44759   Biso      1.000     O          -0.709025           
         O21       1.0000    0.60060   0.31026   0.34950   Biso      1.000     O          -0.653414           
         O22       1.0000    0.56640   0.21088   0.35873   Biso      1.000     O          -0.619923           
         O23       1.0000    0.23700   0.92450   0.61070   Biso      1.000     O          -0.27083  
         O24       1.0000    0.53900   0.91370   0.62970   Biso      1.000     O          -0.294044           
         O25       1.0000    0.39790   0.61700   0.39500   Biso      1.000     O          -0.325052           
         O26       1.0000    0.46500   0.58260   0.31130   Biso      1.000     O          -0.310423           
         O27       1.0000    0.96500   0.58260   0.18870   Biso      1.000     O          -0.31158  
         O28       1.0000    0.20180   0.85142   0.03925   Biso      1.000     O          -0.672802           
         O29       1.0000    0.89790   0.61700   0.10500   Biso      1.000     O          -0.32619  
         O30       1.0000    0.03900   0.91370   0.87030   Biso      1.000     O          -0.294147           
         O31       1.0000    0.41500   0.22452   0.05241   Biso      1.000     O          -0.70916  
         O32       1.0000    0.72840   0.23946   0.05149   Biso      1.000     O          -0.733094           
         O33       1.0000    0.04940   0.33625   0.52031   Biso      1.000     O          -0.639757           
         O34       1.0000    0.73700   0.92450   0.88930   Biso      1.000     O          -0.270883           
         O35       1.0000    0.95060   0.83625   0.97969   Biso      1.000     O          -0.640378           
         O36       1.0000    0.27160   0.73946   0.44851   Biso      1.000     O          -0.733017           
         O37       1.0000    0.79820   0.35142   0.46075   Biso      1.000     O          -0.67097  
         O38       1.0000    0.23700   0.57550   0.11070   Biso      1.000     O          -0.271065           
         O39       1.0000    0.10210   0.38300   0.89500   Biso      1.000     O          -0.326191           
         O40       1.0000    0.60210   0.11700   0.10500   Biso      1.000     O          -0.326919           
         O41       1.0000    0.10210   0.11700   0.39500   Biso      1.000     O          -0.327012           
         O42       1.0000    0.27160   0.76054   0.94851   Biso      1.000     O          -0.733093           
         O43       1.0000    0.95060   0.66375   0.47969   Biso      1.000     O          -0.639757           
         O44       1.0000    0.89790   0.88300   0.60500   Biso      1.000     O          -0.327011           
         O45       1.0000    0.89940   0.68974   0.84950   Biso      1.000     O          -0.656103           
         O46       1.0000    0.93360   0.78912   0.85873   Biso      1.000     O          -0.619381           
         O47       1.0000    0.39790   0.88300   0.89500   Biso      1.000     O          -0.326919           
         O48       1.0000    0.70180   0.64858   0.96075   Biso      1.000     O          -0.672446           
         O49       1.0000    0.46500   0.91740   0.81130   Biso      1.000     O          -0.312023           
         O50       1.0000    0.08500   0.77548   0.55241   Biso      1.000     O          -0.709246           
         O51       1.0000    0.77160   0.76054   0.55149   Biso      1.000     O          -0.732896           
         O52       1.0000    0.45060   0.66375   0.02031   Biso      1.000     O          -0.64055  
         O53       1.0000    0.54940   0.33625   0.97969   Biso      1.000     O          -0.64055  
         O54       1.0000    0.03900   0.58630   0.37030   Biso      1.000     O          -0.285571           
         O55       1.0000    0.91500   0.22452   0.44759   Biso      1.000     O          -0.709246           
         O56       1.0000    0.29820   0.35142   0.03925   Biso      1.000     O          -0.672446           
         O57       1.0000    0.06640   0.21088   0.14127   Biso      1.000     O          -0.619381           
         O58       1.0000    0.03500   0.08260   0.31130   Biso      1.000     O          -0.312153           
         O59       1.0000    0.73700   0.57550   0.38930   Biso      1.000     O          -0.248062           
         O60       1.0000    0.58500   0.77548   0.94759   Biso      1.000     O          -0.70916  
         O61       1.0000    0.46100   0.41370   0.87030   Biso      1.000     O          -0.294522           
         O62       1.0000    0.03500   0.41740   0.81130   Biso      1.000     O          -0.311577           
         O63       1.0000    0.53500   0.08260   0.18870   Biso      1.000     O          -0.312022           
         O64       1.0000    0.46100   0.08630   0.37030   Biso      1.000     O          -0.294047           
         O65       1.0000    0.76300   0.07550   0.38930   Biso      1.000     O          -0.270829           
         O66       1.0000    0.53900   0.58630   0.12970   Biso      1.000     O          -0.294521           
         O67       1.0000    0.96100   0.41370   0.62970   Biso      1.000     O          -0.285572           
         O68       1.0000    0.04940   0.16375   0.02031   Biso      1.000     O          -0.64038  
         O69       1.0000    0.72840   0.26054   0.55149   Biso      1.000     O          -0.733017           
         O70       1.0000    0.41500   0.27548   0.55241   Biso      1.000     O          -0.709024           
         O71       1.0000    0.79820   0.14858   0.96075   Biso      1.000     O          -0.672801           
         O72       1.0000    0.56640   0.28912   0.85873   Biso      1.000     O          -0.619156           
         O73       1.0000    0.60060   0.18974   0.84950   Biso      1.000     O          -0.655895           
         O74       1.0000    0.96500   0.91740   0.68870   Biso      1.000     O          -0.312154           
         O75       1.0000    0.26300   0.42450   0.61070   Biso      1.000     O          -0.248062           
         O76       1.0000    0.39940   0.68974   0.65050   Biso      1.000     O          -0.653414           
         O77       1.0000    0.43360   0.78912   0.64127   Biso      1.000     O          -0.619923           
         O78       1.0000    0.76300   0.42450   0.88930   Biso      1.000     O          -0.271066           
         O79       1.0000    0.20180   0.64858   0.53925   Biso      1.000     O          -0.67097  
         O80       1.0000    0.22840   0.23946   0.44851   Biso      1.000     O          -0.732896 