
##########################################################################
#               Crystallographic Information Format file
#               Produced by PyCifRW module
#
#  This is a CIF file.  CIF has been adopted by the International
#  Union of Crystallography as the standard for data archiving and
#  transmission.
#
#  For information on this file format, follow the CIF links at
#  http://www.iucr.org
##########################################################################

data_image0

_cell_length_a                          10.5835
_cell_length_b                          11.6486
_cell_length_c                          17.609
_cell_angle_alpha                       90
_cell_angle_beta                        90
_cell_angle_gamma                       110.272
_symmetry_space_group_name_H-M          'P 1'
_symmetry_int_tables_number             1
loop_
  _symmetry_equiv_pos_as_xyz
         'x, y, z' 
loop_
  _atom_site_label
  _atom_site_occupancy
  _atom_site_fract_x
  _atom_site_fract_y
  _atom_site_fract_z
  _atom_site_thermal_displace_type
  _atom_site_B_iso_or_equiv
  _atom_site_type_symbol
  _atom_site_charge
         C1        1.0000    0.36670   0.40780   0.27053   Biso      1.000     C          0.12158   
         C2        1.0000    0.40490   0.96560   0.25790   Biso      1.000     C          -0.105016           
         C3        1.0000    0.29490   0.97200   0.22223   Biso      1.000     C          0.129552  
         C4        1.0000    0.93560   0.25040   0.98947   Biso      1.000     C          0.120284  
         C5        1.0000    0.08510   0.16620   0.98030   Biso      1.000     C          -0.121866           
         C6        1.0000    0.08170   0.20030   0.05411   Biso      1.000     C          0.112858  
         C7        1.0000    0.48410   0.52430   0.35920   Biso      1.000     C          0.133614  
         C8        1.0000    0.38230   0.52640   0.25493   Biso      1.000     C          -0.114668           
         C9        1.0000    0.32310   0.18760   0.24420   Biso      1.000     C          -0.175006           
         C10       1.0000    0.19900   0.70370   0.72663   Biso      1.000     C          0.096549  
         C11       1.0000    0.28030   0.70260   0.66508   Biso      1.000     C          -0.199352           
         C12       1.0000    0.33430   0.80510   0.61963   Biso      1.000     C          0.098542  
         C13       1.0000    0.30670   0.91130   0.63624   Biso      1.000     C          -0.200413           
         C14       1.0000    0.26610   0.78350   0.24440   Biso      1.000     C          0.140631  
         C15       1.0000    0.23230   0.91610   0.69970   Biso      1.000     C          0.073705  
         C16       1.0000    0.13330   0.59220   0.77053   Biso      1.000     C          0.119691  
         C17       1.0000    0.11770   0.47360   0.75493   Biso      1.000     C          -0.113851           
         C18       1.0000    0.01590   0.47570   0.85920   Biso      1.000     C          0.130936  
         C19       1.0000    0.41830   0.79970   0.55411   Biso      1.000     C          0.117149  
         C20       1.0000    0.41490   0.83380   0.48030   Biso      1.000     C          -0.116677           
         C21       1.0000    0.56440   0.74960   0.48947   Biso      1.000     C          0.129022  
         C22       1.0000    0.20510   0.02800   0.72223   Biso      1.000     C          0.129319  
         C23       1.0000    0.09510   0.03440   0.75790   Biso      1.000     C          -0.104739           
         C24       1.0000    0.23390   0.21650   0.74440   Biso      1.000     C          0.140687  
         C25       1.0000    0.30100   0.29630   0.22663   Biso      1.000     C          0.096972  
         C26       1.0000    0.21970   0.29740   0.16508   Biso      1.000     C          -0.196806           
         C27       1.0000    0.16570   0.19490   0.11963   Biso      1.000     C          0.097832  
         C28       1.0000    0.17690   0.81240   0.74420   Biso      1.000     C          -0.171743           
         C29       1.0000    0.80100   0.29630   0.27337   Biso      1.000     C          0.096588  
         C30       1.0000    0.71970   0.29740   0.33492   Biso      1.000     C          -0.198748           
         C31       1.0000    0.66570   0.19490   0.38037   Biso      1.000     C          0.098145  
         C32       1.0000    0.73390   0.21650   0.75560   Biso      1.000     C          0.141361  
         C33       1.0000    0.59510   0.03440   0.74210   Biso      1.000     C          -0.103737           
         C34       1.0000    0.70510   0.02800   0.77777   Biso      1.000     C          0.130279  
         C35       1.0000    0.06440   0.74960   0.01053   Biso      1.000     C          0.120013  
         C36       1.0000    0.91490   0.83380   0.01970   Biso      1.000     C          -0.122002           
         C37       1.0000    0.91830   0.79970   0.94589   Biso      1.000     C          0.111815  
         C38       1.0000    0.51590   0.47570   0.64080   Biso      1.000     C          0.138119  
         C39       1.0000    0.61770   0.47360   0.74507   Biso      1.000     C          -0.110631           
         C40       1.0000    0.63330   0.59220   0.72947   Biso      1.000     C          0.125093  
         C41       1.0000    0.67690   0.81240   0.75580   Biso      1.000     C          -0.173794           
         C42       1.0000    0.73230   0.91610   0.80030   Biso      1.000     C          0.074694  
         C43       1.0000    0.80670   0.91130   0.86376   Biso      1.000     C          -0.198942           
         C44       1.0000    0.83430   0.80510   0.88037   Biso      1.000     C          0.097729  
         C45       1.0000    0.78030   0.70260   0.83492   Biso      1.000     C          -0.194424           
         C46       1.0000    0.69900   0.70370   0.77337   Biso      1.000     C          0.097361  
         C47       1.0000    0.76610   0.78350   0.25560   Biso      1.000     C          0.14031   
         C48       1.0000    0.90490   0.96560   0.24210   Biso      1.000     C          -0.105306           
         C49       1.0000    0.79490   0.97200   0.27777   Biso      1.000     C          0.129222  
         C50       1.0000    0.43560   0.25040   0.51053   Biso      1.000     C          0.126644  
         C51       1.0000    0.58510   0.16620   0.51970   Biso      1.000     C          -0.117182           
         C52       1.0000    0.58170   0.20030   0.44589   Biso      1.000     C          0.116185  
         C53       1.0000    0.98410   0.52430   0.14080   Biso      1.000     C          0.131556  
         C54       1.0000    0.88230   0.52640   0.24507   Biso      1.000     C          -0.113493           
         C55       1.0000    0.86670   0.40780   0.22947   Biso      1.000     C          0.120227  
         C56       1.0000    0.82310   0.18760   0.25580   Biso      1.000     C          -0.171463           
         C57       1.0000    0.76770   0.08390   0.30030   Biso      1.000     C          0.074155  
         C58       1.0000    0.69330   0.08870   0.36376   Biso      1.000     C          -0.200046           
         C59       1.0000    0.19330   0.08870   0.13624   Biso      1.000     C          -0.20048  
         C60       1.0000    0.26770   0.08390   0.19970   Biso      1.000     C          0.074616  
         Co1       1.0000    0.98317   0.21628   0.82647   Biso      1.000     Co          0.700233  
         Co2       1.0000    0.51683   0.78372   0.32647   Biso      1.000     Co          0.70555   
         Co3       1.0000    0.01683   0.78372   0.17353   Biso      1.000     Co          0.701265  
         Co4       1.0000    0.48317   0.21628   0.67353   Biso      1.000     Co          0.707001  
         H1        1.0000    0.96620   0.45040   0.90350   Biso      1.000     H          0.080327  
         H2        1.0000    0.53380   0.54960   0.40350   Biso      1.000     H          0.080225  
         H3        1.0000    0.34750   0.55290   0.21260   Biso      1.000     H          0.112742  
         H4        1.0000    0.16130   0.02110   0.10440   Biso      1.000     H          0.114694  
         H5        1.0000    0.20120   0.36800   0.15410   Biso      1.000     H          0.1257    
         H6        1.0000    0.27230   0.30130   0.74630   Biso      1.000     H          0.08065   
         H7        1.0000    0.01940   0.96770   0.77060   Biso      1.000     H          0.118807  
         H8        1.0000    0.35870   0.87290   0.46080   Biso      1.000     H          0.120916  
         H9        1.0000    0.14130   0.12710   0.96080   Biso      1.000     H          0.121668  
         H10       1.0000    0.77230   0.30130   0.75370   Biso      1.000     H          0.080666  
         H11       1.0000    0.15250   0.44710   0.71260   Biso      1.000     H          0.113105  
         H12       1.0000    0.12460   0.81510   0.78610   Biso      1.000     H          0.126611  
         H13       1.0000    0.33870   0.97890   0.60440   Biso      1.000     H          0.11471   
         H14       1.0000    0.29880   0.63200   0.65410   Biso      1.000     H          0.126506  
         H15       1.0000    0.63240   0.71940   0.47720   Biso      1.000     H          0.087751  
         H16       1.0000    0.86760   0.28060   0.97720   Biso      1.000     H          0.087953  
         H17       1.0000    0.37540   0.18490   0.28610   Biso      1.000     H          0.126998  
         H18       1.0000    0.22770   0.69870   0.24630   Biso      1.000     H          0.080609  
         H19       1.0000    0.51940   0.96770   0.72940   Biso      1.000     H          0.119189  
         H20       1.0000    0.13240   0.71940   0.02280   Biso      1.000     H          0.087974  
         H21       1.0000    0.85870   0.87290   0.03920   Biso      1.000     H          0.12159   
         H22       1.0000    0.46620   0.45040   0.59650   Biso      1.000     H          0.079834  
         H23       1.0000    0.48060   0.03230   0.27060   Biso      1.000     H          0.118981  
         H24       1.0000    0.62460   0.81510   0.71390   Biso      1.000     H          0.12769   
         H25       1.0000    0.83870   0.97890   0.89560   Biso      1.000     H          0.114895  
         H26       1.0000    0.79880   0.63200   0.84590   Biso      1.000     H          0.125837  
         H27       1.0000    0.72770   0.69870   0.25370   Biso      1.000     H          0.080507  
         H28       1.0000    0.65250   0.44710   0.78740   Biso      1.000     H          0.112099  
         H29       1.0000    0.36760   0.28060   0.52280   Biso      1.000     H          0.087978  
         H30       1.0000    0.64130   0.12710   0.53920   Biso      1.000     H          0.121446  
         H31       1.0000    0.03380   0.54960   0.09650   Biso      1.000     H          0.080412  
         H32       1.0000    0.84750   0.55290   0.28740   Biso      1.000     H          0.113104  
         H33       1.0000    0.87540   0.18490   0.21390   Biso      1.000     H          0.126852  
         H34       1.0000    0.66130   0.02110   0.39560   Biso      1.000     H          0.114941  
         H35       1.0000    0.70120   0.36800   0.34590   Biso      1.000     H          0.12606   
         H36       1.0000    0.98060   0.03230   0.22940   Biso      1.000     H          0.118945  
         N1        1.0000    0.93340   0.40820   0.16230   Biso      1.000     N          -0.273944           
         N2        1.0000    0.49230   0.19870   0.56078   Biso      1.000     N          -0.301408           
         N3        1.0000    0.48560   0.25500   0.44044   Biso      1.000     N          -0.285013           
         N4        1.0000    0.88790   0.84510   0.22746   Biso      1.000     N          -0.285138           
         N5        1.0000    0.00770   0.80130   0.06078   Biso      1.000     N          -0.296604           
         N6        1.0000    0.54280   0.39890   0.68862   Biso      1.000     N          -0.307888           
         N7        1.0000    0.56660   0.59180   0.66230   Biso      1.000     N          -0.289598           
         N8        1.0000    0.01440   0.74500   0.94044   Biso      1.000     N          -0.279485           
         N9        1.0000    0.95720   0.60110   0.18862   Biso      1.000     N          -0.297193           
         N10       1.0000    0.70420   0.85410   0.28665   Biso      1.000     N          -0.350535           
         N11       1.0000    0.20420   0.85410   0.21335   Biso      1.000     N          -0.35     
         N12       1.0000    0.61210   0.15490   0.72746   Biso      1.000     N          -0.284644           
         N13       1.0000    0.98560   0.25500   0.05956   Biso      1.000     N          -0.279343           
         N14       1.0000    0.99230   0.19870   0.93922   Biso      1.000     N          -0.296804           
         N15       1.0000    0.43340   0.40820   0.33770   Biso      1.000     N          -0.278077           
         N16       1.0000    0.45720   0.60110   0.31138   Biso      1.000     N          -0.301079           
         N17       1.0000    0.29580   0.14590   0.71335   Biso      1.000     N          -0.350842           
         N18       1.0000    0.11210   0.15490   0.77254   Biso      1.000     N          -0.285016           
         N19       1.0000    0.51440   0.74500   0.55956   Biso      1.000     N          -0.290459           
         N20       1.0000    0.50770   0.80130   0.43922   Biso      1.000     N          -0.306034           
         N21       1.0000    0.06660   0.59180   0.83770   Biso      1.000     N          -0.273885           
         N22       1.0000    0.04280   0.39890   0.81138   Biso      1.000     N          -0.297488           
         N23       1.0000    0.38790   0.84510   0.27254   Biso      1.000     N          -0.284764           
         N24       1.0000    0.79580   0.14590   0.78665   Biso      1.000     N          -0.350433 