
##########################################################################
#               Crystallographic Information Format file
#               Produced by PyCifRW module
#
#  This is a CIF file.  CIF has been adopted by the International
#  Union of Crystallography as the standard for data archiving and
#  transmission.
#
#  For information on this file format, follow the CIF links at
#  http://www.iucr.org
##########################################################################

data_image0

_cell_length_a                          9.081
_cell_length_b                          9.9179
_cell_length_c                          14.5781
_cell_angle_alpha                       81.8023
_cell_angle_beta                        71.8527
_cell_angle_gamma                       62.7544
_symmetry_space_group_name_H-M          'P 1'
_symmetry_int_tables_number             1
loop_
  _symmetry_equiv_pos_as_xyz
         'x, y, z' 
loop_
  _atom_site_label
  _atom_site_occupancy
  _atom_site_fract_x
  _atom_site_fract_y
  _atom_site_fract_z
  _atom_site_thermal_displace_type
  _atom_site_B_iso_or_equiv
  _atom_site_type_symbol
  _atom_site_charge
         C1        1.0000    0.54670   0.65240   0.08120   Biso      1.000     C          -0.08280900000000001          
         C2        1.0000    0.93670   0.50680   0.73460   Biso      1.000     C          -0.077278           
         C3        1.0000    0.80320   0.51900   0.00260   Biso      1.000     C          0.131799  
         C4        1.0000    0.65070   0.61920   0.13840   Biso      1.000     C          -0.065715           
         C5        1.0000    0.95487   0.69060   0.25046   Biso      1.000     C          0.131208  
         C6        1.0000    0.15100   0.60100   0.32200   Biso      1.000     C          -0.066664           
         C7        1.0000    0.17810   0.49320   0.26540   Biso      1.000     C          -0.076024           
         C8        1.0000    0.32480   0.48100   0.99740   Biso      1.000     C          0.130102  
         C9        1.0000    0.40830   0.38080   0.86160   Biso      1.000     C          -0.066999           
         C10       1.0000    0.28030   0.34760   0.91880   Biso      1.000     C          -0.08229700000000001          
         C11       1.0000    0.39547   0.80940   0.75046   Biso      1.000     C          0.132188  
         C12       1.0000    0.50200   0.89900   0.82200   Biso      1.000     C          -0.067633           
         C13       1.0000    0.42130   0.00680   0.76540   Biso      1.000     C          -0.076283           
         C14       1.0000    0.55580   0.01900   0.49740   Biso      1.000     C          0.130991  
         C15       1.0000    0.53910   0.11920   0.36160   Biso      1.000     C          -0.06794800000000001          
         C16       1.0000    0.37790   0.15240   0.41880   Biso      1.000     C          -0.082977           
         C17       1.0000    0.95533   0.19060   0.24954   Biso      1.000     C          0.12796400000000002           
         C18       1.0000    0.22300   0.10100   0.17800   Biso      1.000     C          -0.067365           
         C19       1.0000    0.19350   0.99320   0.23460   Biso      1.000     C          -0.079236           
         C20       1.0000    0.07220   0.98100   0.50260   Biso      1.000     C          0.13174   
         C21       1.0000    0.01990   0.88080   0.63840   Biso      1.000     C          -0.06892000000000001          
         C22       1.0000    0.94910   0.84760   0.58120   Biso      1.000     C          -0.080009           
         C23       1.0000    0.07400   0.39900   0.67800   Biso      1.000     C          -0.067871           
         C24       1.0000    0.89593   0.30940   0.74954   Biso      1.000     C          0.129141  
         Co1       1.0000    0.59239   0.57008   0.87396   Biso      1.000     Co          0.6340210000000001  
         Co2       1.0000    0.03643   0.42992   0.12604   Biso      1.000     Co          0.6354890000000001  
         Co3       1.0000    0.21635   0.07008   0.62604   Biso      1.000     Co          0.6355930000000001  
         Co4       1.0000    0.91247   0.92992   0.37396   Biso      1.000     Co          0.636664  
         H1        1.0000    0.11180   0.03680   0.45300   Biso      1.000     H          0.071852  
         H2        1.0000    0.84640   0.24240   0.77020   Biso      1.000     H          0.081599  
         H3        1.0000    0.17100   0.40920   0.63880   Biso      1.000     H          0.10975   
         H4        1.0000    0.27680   0.89600   0.24180   Biso      1.000     H          0.10944300000000001           
         H5        1.0000    0.89860   0.46320   0.95300   Biso      1.000     H          0.072358  
         H6        1.0000    0.61430   0.65080   0.20200   Biso      1.000     H          0.103433  
         H7        1.0000    0.42740   0.70860   0.09860   Biso      1.000     H          0.106644  
         H8        1.0000    0.85900   0.75760   0.22980   Biso      1.000     H          0.081652  
         H9        1.0000    0.21900   0.59080   0.36120   Biso      1.000     H          0.10823499999999998           
         H10       1.0000    0.26860   0.39600   0.25820   Biso      1.000     H          0.10897799999999999           
         H11       1.0000    0.31480   0.53680   0.04700   Biso      1.000     H          0.072727  
         H12       1.0000    0.92280   0.60400   0.74180   Biso      1.000     H          0.10894000000000001           
         H13       1.0000    0.23460   0.29140   0.90140   Biso      1.000     H          0.10775499999999999           
         H14       1.0000    0.46710   0.34920   0.79800   Biso      1.000     H          0.10395499999999999           
         H15       1.0000    0.01510   0.84920   0.70200   Biso      1.000     H          0.10426700000000001           
         H16       1.0000    0.88600   0.79140   0.59860   Biso      1.000     H          0.106651  
         H17       1.0000    0.83880   0.25760   0.27020   Biso      1.000     H          0.082189  
         H18       1.0000    0.27600   0.20860   0.40140   Biso      1.000     H          0.106598  
         H19       1.0000    0.33020   0.09080   0.13880   Biso      1.000     H          0.11036800000000001           
         H20       1.0000    0.60160   0.96320   0.54700   Biso      1.000     H          0.073271  
         H21       1.0000    0.41460   0.10400   0.75820   Biso      1.000     H          0.109207  
         H22       1.0000    0.55980   0.90920   0.86120   Biso      1.000     H          0.109426  
         H23       1.0000    0.36660   0.74240   0.72980   Biso      1.000     H          0.080808  
         H24       1.0000    0.56630   0.15080   0.29800   Biso      1.000     H          0.10459700000000001           
         N1        1.0000    0.07102   0.22860   0.18676   Biso      1.000     N          -0.293579           
         N2        1.0000    0.34894   0.95160   0.71932   Biso      1.000     N          -0.304208           
         N3        1.0000    0.01986   0.04840   0.28068   Biso      1.000     N          -0.301262           
         N4        1.0000    0.65436   0.03320   0.41068   Biso      1.000     N          -0.303919           
         N5        1.0000    0.39124   0.08900   0.50712   Biso      1.000     N          -0.284801           
         N6        1.0000    0.48638   0.77140   0.81324   Biso      1.000     N          -0.294643           
         N7        1.0000    0.43756   0.46680   0.91068   Biso      1.000     N          -0.303755           
         N8        1.0000    0.04962   0.27140   0.68676   Biso      1.000     N          -0.294502           
         N9        1.0000    0.00778   0.72860   0.31324   Biso      1.000     N          -0.296064           
         N10       1.0000    0.05054   0.54840   0.21932   Biso      1.000     N          -0.303106           
         N11       1.0000    0.81504   0.53320   0.08932   Biso      1.000     N          -0.304759           
         N12       1.0000    0.64836   0.58900   0.99288   Biso      1.000     N          -0.285076           
         N13       1.0000    0.81826   0.45160   0.78068   Biso      1.000     N          -0.300819           
         N14       1.0000    0.98736   0.91100   0.49288   Biso      1.000     N          -0.285524           
         N15       1.0000    0.23024   0.41100   0.00712   Biso      1.000     N          -0.285103           
         N16       1.0000    0.09824   0.96680   0.58932   Biso      1.000     N          -0.304452 