
##########################################################################
#               Crystallographic Information Format file
#               Produced by PyCifRW module
#
#  This is a CIF file.  CIF has been adopted by the International
#  Union of Crystallography as the standard for data archiving and
#  transmission.
#
#  For information on this file format, follow the CIF links at
#  http://www.iucr.org
##########################################################################

data_image0

_cell_length_a                          8.5389
_cell_length_b                          17.2009
_cell_length_c                          17.2009
_cell_angle_alpha                       90
_cell_angle_beta                        90
_cell_angle_gamma                       90
_symmetry_space_group_name_H-M          'P 1'
_symmetry_int_tables_number             1
loop_
  _symmetry_equiv_pos_as_xyz
         'x, y, z' 
loop_
  _atom_site_label
  _atom_site_occupancy
  _atom_site_fract_x
  _atom_site_fract_y
  _atom_site_fract_z
  _atom_site_thermal_displace_type
  _atom_site_B_iso_or_equiv
  _atom_site_type_symbol
  _atom_site_charge
         C1        1.0000    0.99030   0.21313   0.89010   Biso      1.000     C          0.589479  
         C2        1.0000    0.35760   0.61210   0.15790   Biso      1.000     C          -0.099114           
         C3        1.0000    0.49030   0.60990   0.28687   Biso      1.000     C          0.589479  
         C4        1.0000    0.44630   0.65050   0.21270   Biso      1.000     C          -0.01564  
         C5        1.0000    0.49700   0.72570   0.19907   Biso      1.000     C          -0.122981           
         C6        1.0000    0.45860   0.76149   0.12905   Biso      1.000     C          -0.075268           
         C7        1.0000    0.37160   0.27670   0.92633   Biso      1.000     C          -0.07885700000000001          
         C8        1.0000    0.31900   0.35150   0.91130   Biso      1.000     C          -0.079826           
         C9        1.0000    0.35760   0.38790   0.84210   Biso      1.000     C          -0.099112           
         C10       1.0000    0.49030   0.39010   0.71313   Biso      1.000     C          0.589479  
         C11       1.0000    0.44630   0.34950   0.78730   Biso      1.000     C          -0.015641           
         C12       1.0000    0.49700   0.27430   0.80093   Biso      1.000     C          -0.122982           
         C13       1.0000    0.31900   0.64850   0.08870   Biso      1.000     C          -0.079824           
         C14       1.0000    0.45860   0.23851   0.87095   Biso      1.000     C          -0.075264           
         C15       1.0000    0.68100   0.91130   0.64850   Biso      1.000     C          -0.079827           
         C16       1.0000    0.64240   0.84210   0.61210   Biso      1.000     C          -0.099112           
         C17       1.0000    0.50970   0.71313   0.60990   Biso      1.000     C          0.58948   
         C18       1.0000    0.55370   0.78730   0.65050   Biso      1.000     C          -0.015641           
         C19       1.0000    0.50300   0.80093   0.72570   Biso      1.000     C          -0.122981           
         C20       1.0000    0.54140   0.12905   0.23851   Biso      1.000     C          -0.075267           
         C21       1.0000    0.50300   0.19907   0.27430   Biso      1.000     C          -0.122982           
         C22       1.0000    0.55370   0.21270   0.34950   Biso      1.000     C          -0.015639           
         C23       1.0000    0.50970   0.28687   0.39010   Biso      1.000     C          0.589479  
         C24       1.0000    0.64240   0.15790   0.38790   Biso      1.000     C          -0.099114           
         C25       1.0000    0.68100   0.08870   0.35150   Biso      1.000     C          -0.079824           
         C26       1.0000    0.62840   0.92633   0.72330   Biso      1.000     C          -0.078856           
         C27       1.0000    0.37160   0.72330   0.07367   Biso      1.000     C          -0.07885299999999999          
         C28       1.0000    0.95860   0.37095   0.73851   Biso      1.000     C          -0.07527  
         C29       1.0000    0.99700   0.30093   0.77430   Biso      1.000     C          -0.122983           
         C30       1.0000    0.12840   0.77670   0.57367   Biso      1.000     C          -0.078856           
         C31       1.0000    0.18100   0.85150   0.58870   Biso      1.000     C          -0.079828           
         C32       1.0000    0.14240   0.88790   0.65790   Biso      1.000     C          -0.099111           
         C33       1.0000    0.00970   0.89010   0.78687   Biso      1.000     C          0.589478  
         C34       1.0000    0.05370   0.84950   0.71270   Biso      1.000     C          -0.01564  
         C35       1.0000    0.00300   0.77430   0.69907   Biso      1.000     C          -0.122982           
         C36       1.0000    0.04140   0.73851   0.62905   Biso      1.000     C          -0.075265           
         C37       1.0000    0.12840   0.22330   0.42633   Biso      1.000     C          -0.078856           
         C38       1.0000    0.18100   0.14850   0.41130   Biso      1.000     C          -0.079826           
         C39       1.0000    0.14240   0.11210   0.34210   Biso      1.000     C          -0.09911299999999999          
         C40       1.0000    0.00970   0.10990   0.21313   Biso      1.000     C          0.589481  
         C41       1.0000    0.05370   0.15050   0.28730   Biso      1.000     C          -0.01564  
         C42       1.0000    0.00300   0.22570   0.30093   Biso      1.000     C          -0.122982           
         C43       1.0000    0.04140   0.26149   0.37095   Biso      1.000     C          -0.075266           
         C44       1.0000    0.87160   0.57367   0.22330   Biso      1.000     C          -0.07885700000000001          
         C45       1.0000    0.81900   0.58870   0.14850   Biso      1.000     C          -0.079826           
         C46       1.0000    0.85760   0.65790   0.11210   Biso      1.000     C          -0.099112           
         C47       1.0000    0.99030   0.78687   0.10990   Biso      1.000     C          0.589479  
         C48       1.0000    0.94630   0.71270   0.15050   Biso      1.000     C          -0.015641           
         C49       1.0000    0.99700   0.69907   0.22570   Biso      1.000     C          -0.122981           
         C50       1.0000    0.95860   0.62905   0.26149   Biso      1.000     C          -0.075264           
         C51       1.0000    0.87160   0.42633   0.77670   Biso      1.000     C          -0.078851           
         C52       1.0000    0.81900   0.41130   0.85150   Biso      1.000     C          -0.079827           
         C53       1.0000    0.85760   0.34210   0.88790   Biso      1.000     C          -0.099111           
         C54       1.0000    0.94630   0.28730   0.84950   Biso      1.000     C          -0.015639           
         C55       1.0000    0.62840   0.07367   0.27670   Biso      1.000     C          -0.07885299999999999          
         C56       1.0000    0.54140   0.87095   0.76149   Biso      1.000     C          -0.075265           
         Eu1       1.0000    0.15047   0.96304   0.11061   Biso      1.000     Eu          1.4120700000000002  
         Eu2       1.0000    0.15047   0.03696   0.88939   Biso      1.000     Eu          1.412069  
         Eu3       1.0000    0.84953   0.11061   0.03696   Biso      1.000     Eu          1.412068  
         Eu4       1.0000    0.84953   0.88939   0.96304   Biso      1.000     Eu          1.412067  
         Eu5       1.0000    0.34953   0.53696   0.61061   Biso      1.000     Eu          1.412072  
         Eu6       1.0000    0.34953   0.46304   0.38939   Biso      1.000     Eu          1.412074  
         Eu7       1.0000    0.65047   0.38939   0.53696   Biso      1.000     Eu          1.412073  
         Eu8       1.0000    0.65047   0.61061   0.46304   Biso      1.000     Eu          1.412076  
         H1        1.0000    0.15170   0.75260   0.52670   Biso      1.000     H          0.129603  
         H2        1.0000    0.34830   0.25260   0.97330   Biso      1.000     H          0.129603  
         H3        1.0000    0.25770   0.37720   0.94780   Biso      1.000     H          0.11732100000000001           
         H4        1.0000    0.32350   0.43830   0.83260   Biso      1.000     H          0.12360499999999999           
         H5        1.0000    0.55600   0.24800   0.76380   Biso      1.000     H          0.133253  
         H6        1.0000    0.20100   0.89100   0.96000   Biso      1.000     H          0.38372399999999995           
         H7        1.0000    0.65170   0.97330   0.74740   Biso      1.000     H          0.129602  
         H8        1.0000    0.74230   0.94780   0.62280   Biso      1.000     H          0.11732200000000001           
         H9        1.0000    0.74230   0.05220   0.37720   Biso      1.000     H          0.117323  
         H10       1.0000    0.44400   0.76380   0.75200   Biso      1.000     H          0.133253  
         H11       1.0000    0.20100   0.10900   0.04000   Biso      1.000     H          0.383725  
         H12       1.0000    0.79900   0.04000   0.89100   Biso      1.000     H          0.383723  
         H13       1.0000    0.67650   0.16740   0.43830   Biso      1.000     H          0.12360499999999999           
         H14       1.0000    0.44400   0.23620   0.24800   Biso      1.000     H          0.13325499999999998           
         H15       1.0000    0.70100   0.54000   0.60900   Biso      1.000     H          0.383723  
         H16       1.0000    0.67650   0.83260   0.56170   Biso      1.000     H          0.12360499999999999           
         H17       1.0000    0.55600   0.75200   0.23620   Biso      1.000     H          0.13325399999999998           
         H18       1.0000    0.65170   0.02670   0.25260   Biso      1.000     H          0.129604  
         H19       1.0000    0.24230   0.12280   0.44780   Biso      1.000     H          0.11732200000000001           
         H20       1.0000    0.32350   0.56170   0.16740   Biso      1.000     H          0.12360499999999999           
         H21       1.0000    0.17650   0.93830   0.66740   Biso      1.000     H          0.12360299999999999           
         H22       1.0000    0.94400   0.74800   0.73620   Biso      1.000     H          0.133253  
         H23       1.0000    0.70100   0.46000   0.39100   Biso      1.000     H          0.383725  
         H24       1.0000    0.15170   0.24740   0.47330   Biso      1.000     H          0.129604  
         H25       1.0000    0.17650   0.06170   0.33260   Biso      1.000     H          0.12360499999999999           
         H26       1.0000    0.94400   0.25200   0.26380   Biso      1.000     H          0.13325499999999998           
         H27       1.0000    0.29900   0.60900   0.46000   Biso      1.000     H          0.383726  
         H28       1.0000    0.75770   0.55220   0.12280   Biso      1.000     H          0.11732100000000001           
         H29       1.0000    0.84830   0.52670   0.24740   Biso      1.000     H          0.129604  
         H30       1.0000    0.05600   0.73620   0.25200   Biso      1.000     H          0.13325399999999998           
         H31       1.0000    0.29900   0.39100   0.54000   Biso      1.000     H          0.383725  
         H32       1.0000    0.84830   0.47330   0.75260   Biso      1.000     H          0.129603  
         H33       1.0000    0.75770   0.44780   0.87720   Biso      1.000     H          0.11732200000000001           
         H34       1.0000    0.82350   0.33260   0.93830   Biso      1.000     H          0.12360399999999999           
         H35       1.0000    0.05600   0.26380   0.74800   Biso      1.000     H          0.13325399999999998           
         H36       1.0000    0.79900   0.96000   0.10900   Biso      1.000     H          0.383725  
         H37       1.0000    0.34830   0.74740   0.02670   Biso      1.000     H          0.129603  
         H38       1.0000    0.25770   0.62280   0.05220   Biso      1.000     H          0.11732100000000001           
         H39       1.0000    0.82350   0.66740   0.06170   Biso      1.000     H          0.12360399999999999           
         H40       1.0000    0.24230   0.87720   0.55220   Biso      1.000     H          0.11732200000000001           
         O1        1.0000    0.14660   0.55071   0.34851   Biso      1.000     O          -0.614679           
         O2        1.0000    0.08090   0.32046   0.60865   Biso      1.000     O          -0.537574           
         O3        1.0000    0.37860   0.42634   0.52580   Biso      1.000     O          -0.8243   
         O4        1.0000    0.96950   0.21065   0.96328   Biso      1.000     O          -0.507609           
         O5        1.0000    0.04300   0.15847   0.85072   Biso      1.000     O          -0.531729           
         O6        1.0000    0.95700   0.85072   0.84153   Biso      1.000     O          -0.531723           
         O7        1.0000    0.14660   0.44929   0.65149   Biso      1.000     O          -0.614672           
         O8        1.0000    0.87860   0.97420   0.07366   Biso      1.000     O          -0.824304           
         O9        1.0000    0.46950   0.53672   0.28935   Biso      1.000     O          -0.5076149999999999           
         O10       1.0000    0.88760   0.57563   0.39631   Biso      1.000     O          -0.6090270000000001           
         O11       1.0000    0.54300   0.64928   0.34153   Biso      1.000     O          -0.531728           
         O12       1.0000    0.88760   0.42437   0.60369   Biso      1.000     O          -0.60902  
         O13       1.0000    0.08090   0.67954   0.39135   Biso      1.000     O          -0.5375840000000001           
         O14       1.0000    0.85340   0.65149   0.55071   Biso      1.000     O          -0.614675           
         O15       1.0000    0.96950   0.78935   0.03672   Biso      1.000     O          -0.507606           
         O16       1.0000    0.37860   0.57366   0.47420   Biso      1.000     O          -0.824306           
         O17       1.0000    0.85340   0.34851   0.44929   Biso      1.000     O          -0.614675           
         O18       1.0000    0.11240   0.39631   0.42437   Biso      1.000     O          -0.6090220000000001           
         O19       1.0000    0.91910   0.39135   0.32046   Biso      1.000     O          -0.537575           
         O20       1.0000    0.95700   0.14928   0.15847   Biso      1.000     O          -0.531726           
         O21       1.0000    0.03050   0.03672   0.21065   Biso      1.000     O          -0.5076149999999999           
         O22       1.0000    0.62140   0.47420   0.42634   Biso      1.000     O          -0.8243010000000001           
         O23       1.0000    0.11240   0.60369   0.57563   Biso      1.000     O          -0.609021           
         O24       1.0000    0.91910   0.60865   0.67954   Biso      1.000     O          -0.5375770000000001           
         O25       1.0000    0.58090   0.89135   0.17954   Biso      1.000     O          -0.5375840000000001           
         O26       1.0000    0.04300   0.84153   0.14928   Biso      1.000     O          -0.531724           
         O27       1.0000    0.38760   0.89631   0.07563   Biso      1.000     O          -0.609025           
         O28       1.0000    0.62140   0.52580   0.57366   Biso      1.000     O          -0.824298           
         O29       1.0000    0.87860   0.02580   0.92634   Biso      1.000     O          -0.824305           
         O30       1.0000    0.03050   0.96328   0.78935   Biso      1.000     O          -0.507606           
         O31       1.0000    0.35340   0.05071   0.15149   Biso      1.000     O          -0.614677           
         O32       1.0000    0.61240   0.07563   0.10369   Biso      1.000     O          -0.6090220000000001           
         O33       1.0000    0.41910   0.17954   0.10865   Biso      1.000     O          -0.5375840000000001           
         O34       1.0000    0.45700   0.34153   0.35072   Biso      1.000     O          -0.5317310000000001           
         O35       1.0000    0.64660   0.84851   0.05071   Biso      1.000     O          -0.614679           
         O36       1.0000    0.12140   0.07366   0.02580   Biso      1.000     O          -0.824307           
         O37       1.0000    0.35340   0.94929   0.84851   Biso      1.000     O          -0.614679           
         O38       1.0000    0.61240   0.92437   0.89631   Biso      1.000     O          -0.609023           
         O39       1.0000    0.53050   0.28935   0.46328   Biso      1.000     O          -0.5076149999999999           
         O40       1.0000    0.45700   0.65847   0.64928   Biso      1.000     O          -0.531729           
         O41       1.0000    0.53050   0.71065   0.53672   Biso      1.000     O          -0.507617           
         O42       1.0000    0.12140   0.92634   0.97420   Biso      1.000     O          -0.8243030000000001           
         O43       1.0000    0.64660   0.15149   0.94929   Biso      1.000     O          -0.614676           
         O44       1.0000    0.38760   0.10369   0.92437   Biso      1.000     O          -0.609021           
         O45       1.0000    0.58090   0.10865   0.82046   Biso      1.000     O          -0.5375810000000001           
         O46       1.0000    0.54300   0.35072   0.65847   Biso      1.000     O          -0.5317270000000001           
         O47       1.0000    0.46950   0.46328   0.71065   Biso      1.000     O          -0.507618           
         O48       1.0000    0.41910   0.82046   0.89135   Biso      1.000     O          -0.5375800000000001           
         S1        1.0000    0.47619   0.10829   0.14323   Biso      1.000     S          1.207551  
         S2        1.0000    0.47619   0.89171   0.85677   Biso      1.000     S          1.207547  
         S3        1.0000    0.97619   0.35677   0.39171   Biso      1.000     S          1.207541  
         S4        1.0000    0.52381   0.85677   0.10829   Biso      1.000     S          1.207548  
         S5        1.0000    0.02381   0.60829   0.35677   Biso      1.000     S          1.207548  
         S6        1.0000    0.97619   0.64323   0.60829   Biso      1.000     S          1.2075420000000001  
         S7        1.0000    0.52381   0.14323   0.89171   Biso      1.000     S          1.207548  
         S8        1.0000    0.02381   0.39171   0.64323   Biso      1.000     S          1.207538 