
##########################################################################
#               Crystallographic Information Format file
#               Produced by PyCifRW module
#
#  This is a CIF file.  CIF has been adopted by the International
#  Union of Crystallography as the standard for data archiving and
#  transmission.
#
#  For information on this file format, follow the CIF links at
#  http://www.iucr.org
##########################################################################

data_image0

_cell_length_a                          8.5106
_cell_length_b                          17.1743
_cell_length_c                          17.1743
_cell_angle_alpha                       90
_cell_angle_beta                        90
_cell_angle_gamma                       90
_symmetry_space_group_name_H-M          'P 1'
_symmetry_int_tables_number             1
loop_
  _symmetry_equiv_pos_as_xyz
         'x, y, z' 
loop_
  _atom_site_label
  _atom_site_occupancy
  _atom_site_fract_x
  _atom_site_fract_y
  _atom_site_fract_z
  _atom_site_thermal_displace_type
  _atom_site_B_iso_or_equiv
  _atom_site_type_symbol
  _atom_site_charge
         C1        1.0000    0.01060   0.78720   0.11010   Biso      1.000     C          0.654185  
         C2        1.0000    0.64160   0.38860   0.84270   Biso      1.000     C          -0.09434  
         C3        1.0000    0.51060   0.38990   0.71280   Biso      1.000     C          0.654185  
         C4        1.0000    0.55350   0.34990   0.78710   Biso      1.000     C          -0.021711           
         C5        1.0000    0.50380   0.27420   0.80110   Biso      1.000     C          -0.11614  
         C6        1.0000    0.54170   0.23890   0.87140   Biso      1.000     C          -0.086054           
         C7        1.0000    0.62660   0.72270   0.07260   Biso      1.000     C          -0.08158  
         C8        1.0000    0.67950   0.64750   0.08780   Biso      1.000     C          -0.07967  
         C9        1.0000    0.64160   0.61140   0.15730   Biso      1.000     C          -0.09434  
         C10       1.0000    0.51060   0.61010   0.28720   Biso      1.000     C          0.654185  
         C11       1.0000    0.55350   0.65010   0.21290   Biso      1.000     C          -0.021711           
         C12       1.0000    0.50380   0.72580   0.19890   Biso      1.000     C          -0.116141           
         C13       1.0000    0.67950   0.35250   0.91220   Biso      1.000     C          -0.07967  
         C14       1.0000    0.54170   0.76110   0.12860   Biso      1.000     C          -0.086048           
         C15       1.0000    0.32050   0.08780   0.35250   Biso      1.000     C          -0.07967  
         C16       1.0000    0.35840   0.15730   0.38860   Biso      1.000     C          -0.09434  
         C17       1.0000    0.48940   0.28720   0.38990   Biso      1.000     C          0.654185  
         C18       1.0000    0.44650   0.21290   0.34990   Biso      1.000     C          -0.021711           
         C19       1.0000    0.49620   0.19890   0.27420   Biso      1.000     C          -0.116141           
         C20       1.0000    0.45830   0.87140   0.76110   Biso      1.000     C          -0.086055           
         C21       1.0000    0.49620   0.80110   0.72580   Biso      1.000     C          -0.116141           
         C22       1.0000    0.44650   0.78710   0.65010   Biso      1.000     C          -0.02171  
         C23       1.0000    0.48940   0.71280   0.61010   Biso      1.000     C          0.654185  
         C24       1.0000    0.35840   0.84270   0.61140   Biso      1.000     C          -0.09434  
         C25       1.0000    0.32050   0.91220   0.64750   Biso      1.000     C          -0.07967  
         C26       1.0000    0.37340   0.07260   0.27730   Biso      1.000     C          -0.08158  
         C27       1.0000    0.62660   0.27730   0.92740   Biso      1.000     C          -0.081574           
         C28       1.0000    0.04170   0.62860   0.26110   Biso      1.000     C          -0.086055           
         C29       1.0000    0.00380   0.69890   0.22580   Biso      1.000     C          -0.116141           
         C30       1.0000    0.87340   0.22270   0.42740   Biso      1.000     C          -0.08158  
         C31       1.0000    0.82050   0.14750   0.41220   Biso      1.000     C          -0.07967  
         C32       1.0000    0.85840   0.11140   0.34270   Biso      1.000     C          -0.09434  
         C33       1.0000    0.98940   0.11010   0.21280   Biso      1.000     C          0.654185  
         C34       1.0000    0.94650   0.15010   0.28710   Biso      1.000     C          -0.021711           
         C35       1.0000    0.99620   0.22580   0.30110   Biso      1.000     C          -0.116141           
         C36       1.0000    0.95830   0.26110   0.37140   Biso      1.000     C          -0.086048           
         C37       1.0000    0.87340   0.77730   0.57260   Biso      1.000     C          -0.08158  
         C38       1.0000    0.82050   0.85250   0.58780   Biso      1.000     C          -0.07967  
         C39       1.0000    0.85840   0.88860   0.65730   Biso      1.000     C          -0.09434  
         C40       1.0000    0.98940   0.88990   0.78720   Biso      1.000     C          0.654185  
         C41       1.0000    0.94650   0.84990   0.71290   Biso      1.000     C          -0.021711           
         C42       1.0000    0.99620   0.77420   0.69890   Biso      1.000     C          -0.116141           
         C43       1.0000    0.95830   0.73890   0.62860   Biso      1.000     C          -0.086048           
         C44       1.0000    0.12660   0.42740   0.77730   Biso      1.000     C          -0.08158  
         C45       1.0000    0.17950   0.41220   0.85250   Biso      1.000     C          -0.07967  
         C46       1.0000    0.14160   0.34270   0.88860   Biso      1.000     C          -0.09434  
         C47       1.0000    0.01060   0.21280   0.88990   Biso      1.000     C          0.654185  
         C48       1.0000    0.05350   0.28710   0.84990   Biso      1.000     C          -0.021711           
         C49       1.0000    0.00380   0.30110   0.77420   Biso      1.000     C          -0.116141           
         C50       1.0000    0.04170   0.37140   0.73890   Biso      1.000     C          -0.086048           
         C51       1.0000    0.12660   0.57260   0.22270   Biso      1.000     C          -0.081573           
         C52       1.0000    0.17950   0.58780   0.14750   Biso      1.000     C          -0.07967  
         C53       1.0000    0.14160   0.65730   0.11140   Biso      1.000     C          -0.09434  
         C54       1.0000    0.05350   0.71290   0.15010   Biso      1.000     C          -0.02171  
         C55       1.0000    0.37340   0.92740   0.72270   Biso      1.000     C          -0.081574           
         C56       1.0000    0.45830   0.12860   0.23890   Biso      1.000     C          -0.086048           
         Gd1       1.0000    0.84969   0.03687   0.88971   Biso      1.000     Gd          2.172222  
         Gd2       1.0000    0.84969   0.96313   0.11029   Biso      1.000     Gd          2.172222  
         Gd3       1.0000    0.15031   0.88971   0.96313   Biso      1.000     Gd          2.172222  
         Gd4       1.0000    0.15031   0.11029   0.03687   Biso      1.000     Gd          2.172222  
         Gd5       1.0000    0.65031   0.46313   0.38971   Biso      1.000     Gd          2.172222  
         Gd6       1.0000    0.65031   0.53687   0.61029   Biso      1.000     Gd          2.172222  
         Gd7       1.0000    0.34969   0.61029   0.46313   Biso      1.000     Gd          2.172222  
         Gd8       1.0000    0.34969   0.38971   0.53687   Biso      1.000     Gd          2.172222  
         H1        1.0000    0.85150   0.24660   0.47480   Biso      1.000     H          0.132691  
         H2        1.0000    0.64850   0.74660   0.02520   Biso      1.000     H          0.132691  
         H3        1.0000    0.74050   0.62150   0.05120   Biso      1.000     H          0.11683   
         H4        1.0000    0.67550   0.56080   0.16670   Biso      1.000     H          0.120504  
         H5        1.0000    0.44580   0.75260   0.23620   Biso      1.000     H          0.133346  
         H6        1.0000    0.79700   0.10900   0.03900   Biso      1.000     H          0.427736  
         H7        1.0000    0.35150   0.02520   0.25340   Biso      1.000     H          0.132691  
         H8        1.0000    0.25950   0.05120   0.37850   Biso      1.000     H          0.11683   
         H9        1.0000    0.25950   0.94880   0.62150   Biso      1.000     H          0.11683   
         H10       1.0000    0.55420   0.23620   0.24740   Biso      1.000     H          0.133346  
         H11       1.0000    0.79700   0.89100   0.96100   Biso      1.000     H          0.427736  
         H12       1.0000    0.20300   0.96100   0.10900   Biso      1.000     H          0.427736  
         H13       1.0000    0.32450   0.83330   0.56080   Biso      1.000     H          0.120504  
         H14       1.0000    0.55420   0.76380   0.75260   Biso      1.000     H          0.133346  
         H15       1.0000    0.29700   0.46100   0.39100   Biso      1.000     H          0.427736  
         H16       1.0000    0.32450   0.16670   0.43920   Biso      1.000     H          0.120504  
         H17       1.0000    0.44580   0.24740   0.76380   Biso      1.000     H          0.133346  
         H18       1.0000    0.35150   0.97480   0.74660   Biso      1.000     H          0.13269   
         H19       1.0000    0.75950   0.87850   0.55120   Biso      1.000     H          0.11683   
         H20       1.0000    0.67550   0.43920   0.83330   Biso      1.000     H          0.120504  
         H21       1.0000    0.82450   0.06080   0.33330   Biso      1.000     H          0.120504  
         H22       1.0000    0.05420   0.25260   0.26380   Biso      1.000     H          0.133346  
         H23       1.0000    0.29700   0.53900   0.60900   Biso      1.000     H          0.427736  
         H24       1.0000    0.85150   0.75340   0.52520   Biso      1.000     H          0.132691  
         H25       1.0000    0.82450   0.93920   0.66670   Biso      1.000     H          0.120504  
         H26       1.0000    0.05420   0.74740   0.73620   Biso      1.000     H          0.133346  
         H27       1.0000    0.70300   0.39100   0.53900   Biso      1.000     H          0.427736  
         H28       1.0000    0.24050   0.44880   0.87850   Biso      1.000     H          0.11683   
         H29       1.0000    0.14850   0.47480   0.75340   Biso      1.000     H          0.132691  
         H30       1.0000    0.94580   0.26380   0.74740   Biso      1.000     H          0.133346  
         H31       1.0000    0.70300   0.60900   0.46100   Biso      1.000     H          0.427736  
         H32       1.0000    0.14850   0.52520   0.24660   Biso      1.000     H          0.13269   
         H33       1.0000    0.24050   0.55120   0.12150   Biso      1.000     H          0.11683   
         H34       1.0000    0.17550   0.66670   0.06080   Biso      1.000     H          0.120504  
         H35       1.0000    0.94580   0.73620   0.25260   Biso      1.000     H          0.133347  
         H36       1.0000    0.20300   0.03900   0.89100   Biso      1.000     H          0.427736  
         H37       1.0000    0.64850   0.25340   0.97480   Biso      1.000     H          0.13269   
         H38       1.0000    0.74050   0.37850   0.94880   Biso      1.000     H          0.116829  
         H39       1.0000    0.17550   0.33330   0.93920   Biso      1.000     H          0.120504  
         H40       1.0000    0.75950   0.12150   0.44880   Biso      1.000     H          0.116829  
         O1        1.0000    0.85300   0.44954   0.65102   Biso      1.000     O          -0.724696           
         O2        1.0000    0.91830   0.67972   0.39171   Biso      1.000     O          -0.594472           
         O3        1.0000    0.62190   0.57367   0.47401   Biso      1.000     O          -1.14502  
         O4        1.0000    0.03080   0.78987   0.03603   Biso      1.000     O          -0.700987           
         O5        1.0000    0.95710   0.84215   0.14919   Biso      1.000     O          -0.664717           
         O6        1.0000    0.04290   0.14919   0.15785   Biso      1.000     O          -0.664717           
         O7        1.0000    0.85300   0.55046   0.34898   Biso      1.000     O          -0.724696           
         O8        1.0000    0.12190   0.02599   0.92633   Biso      1.000     O          -1.145019           
         O9        1.0000    0.53080   0.46397   0.71013   Biso      1.000     O          -0.700987           
         O10       1.0000    0.11350   0.42447   0.60363   Biso      1.000     O          -0.725757           
         O11       1.0000    0.45710   0.35081   0.65785   Biso      1.000     O          -0.664717           
         O12       1.0000    0.11350   0.57553   0.39637   Biso      1.000     O          -0.725758           
         O13       1.0000    0.91830   0.32028   0.60829   Biso      1.000     O          -0.594472           
         O14       1.0000    0.14700   0.34898   0.44954   Biso      1.000     O          -0.724696           
         O15       1.0000    0.03080   0.21013   0.96397   Biso      1.000     O          -0.700987           
         O16       1.0000    0.62190   0.42633   0.52599   Biso      1.000     O          -1.14502  
         O17       1.0000    0.14700   0.65102   0.55046   Biso      1.000     O          -0.724695           
         O18       1.0000    0.88650   0.60363   0.57553   Biso      1.000     O          -0.725757           
         O19       1.0000    0.08170   0.60829   0.67972   Biso      1.000     O          -0.594472           
         O20       1.0000    0.04290   0.85081   0.84215   Biso      1.000     O          -0.664717           
         O21       1.0000    0.96920   0.96397   0.78987   Biso      1.000     O          -0.700987           
         O22       1.0000    0.37810   0.52599   0.57367   Biso      1.000     O          -1.14502  
         O23       1.0000    0.88650   0.39637   0.42447   Biso      1.000     O          -0.725758           
         O24       1.0000    0.08170   0.39171   0.32028   Biso      1.000     O          -0.594472           
         O25       1.0000    0.41830   0.10829   0.82028   Biso      1.000     O          -0.594472           
         O26       1.0000    0.95710   0.15785   0.85081   Biso      1.000     O          -0.664717           
         O27       1.0000    0.61350   0.10363   0.92447   Biso      1.000     O          -0.725757           
         O28       1.0000    0.37810   0.47401   0.42633   Biso      1.000     O          -1.14502  
         O29       1.0000    0.12190   0.97401   0.07367   Biso      1.000     O          -1.14502  
         O30       1.0000    0.96920   0.03603   0.21013   Biso      1.000     O          -0.700987           
         O31       1.0000    0.64700   0.94954   0.84898   Biso      1.000     O          -0.724695           
         O32       1.0000    0.38650   0.92447   0.89637   Biso      1.000     O          -0.725758           
         O33       1.0000    0.58170   0.82028   0.89171   Biso      1.000     O          -0.594472           
         O34       1.0000    0.54290   0.65785   0.64919   Biso      1.000     O          -0.664717           
         O35       1.0000    0.35300   0.15102   0.94954   Biso      1.000     O          -0.724695           
         O36       1.0000    0.87810   0.92633   0.97401   Biso      1.000     O          -1.145019           
         O37       1.0000    0.64700   0.05046   0.15102   Biso      1.000     O          -0.724695           
         O38       1.0000    0.38650   0.07553   0.10363   Biso      1.000     O          -0.725757           
         O39       1.0000    0.46920   0.71013   0.53603   Biso      1.000     O          -0.700987           
         O40       1.0000    0.54290   0.34215   0.35081   Biso      1.000     O          -0.664717           
         O41       1.0000    0.46920   0.28987   0.46397   Biso      1.000     O          -0.700987           
         O42       1.0000    0.87810   0.07367   0.02599   Biso      1.000     O          -1.14502  
         O43       1.0000    0.35300   0.84898   0.05046   Biso      1.000     O          -0.724696           
         O44       1.0000    0.61350   0.89637   0.07553   Biso      1.000     O          -0.725757           
         O45       1.0000    0.41830   0.89171   0.17972   Biso      1.000     O          -0.594472           
         O46       1.0000    0.45710   0.64919   0.34215   Biso      1.000     O          -0.664717           
         O47       1.0000    0.53080   0.53603   0.28987   Biso      1.000     O          -0.700987           
         O48       1.0000    0.58170   0.17972   0.10829   Biso      1.000     O          -0.594472           
         S1        1.0000    0.52366   0.89177   0.85686   Biso      1.000     S          1.277625  
         S2        1.0000    0.52366   0.10823   0.14314   Biso      1.000     S          1.277624  
         S3        1.0000    0.02366   0.64314   0.60823   Biso      1.000     S          1.277624  
         S4        1.0000    0.47634   0.14314   0.89177   Biso      1.000     S          1.277625  
         S5        1.0000    0.97634   0.39177   0.64314   Biso      1.000     S          1.277624  
         S6        1.0000    0.02366   0.35686   0.39177   Biso      1.000     S          1.277624  
         S7        1.0000    0.47634   0.85686   0.10823   Biso      1.000     S          1.277624  
         S8        1.0000    0.97634   0.60823   0.35686   Biso      1.000     S          1.277625 