
##########################################################################
#               Crystallographic Information Format file
#               Produced by PyCifRW module
#
#  This is a CIF file.  CIF has been adopted by the International
#  Union of Crystallography as the standard for data archiving and
#  transmission.
#
#  For information on this file format, follow the CIF links at
#  http://www.iucr.org
##########################################################################

data_image0

_cell_length_a                          8.4672
_cell_length_b                          17.1205
_cell_length_c                          17.1205
_cell_angle_alpha                       90
_cell_angle_beta                        90
_cell_angle_gamma                       90
_symmetry_space_group_name_H-M          'P 1'
_symmetry_int_tables_number             1
loop_
  _symmetry_equiv_pos_as_xyz
         'x, y, z' 
loop_
  _atom_site_label
  _atom_site_occupancy
  _atom_site_fract_x
  _atom_site_fract_y
  _atom_site_fract_z
  _atom_site_thermal_displace_type
  _atom_site_B_iso_or_equiv
  _atom_site_type_symbol
  _atom_site_charge
         C1        1.0000    0.50810   0.60790   0.28640   Biso      1.000     C          0.6585449999999999  
         C2        1.0000    0.53770   0.75880   0.12700   Biso      1.000     C          -0.083208           
         C3        1.0000    0.12300   0.42890   0.78040   Biso      1.000     C          -0.07827200000000001          
         C4        1.0000    0.17570   0.41430   0.85400   Biso      1.000     C          -0.079891           
         C5        1.0000    0.13760   0.34430   0.89060   Biso      1.000     C          -0.09246900000000001          
         C6        1.0000    0.00810   0.21360   0.89210   Biso      1.000     C          0.6585449999999999  
         C7        1.0000    0.04930   0.28820   0.85260   Biso      1.000     C          -0.022747           
         C8        1.0000    0.00210   0.30200   0.77630   Biso      1.000     C          -0.114728           
         C9        1.0000    0.03770   0.37300   0.74120   Biso      1.000     C          -0.083203           
         C10       1.0000    0.12300   0.57110   0.21960   Biso      1.000     C          -0.078273           
         C11       1.0000    0.17570   0.58570   0.14600   Biso      1.000     C          -0.079891           
         C12       1.0000    0.50210   0.72370   0.19800   Biso      1.000     C          -0.114727           
         C13       1.0000    0.13760   0.65570   0.10940   Biso      1.000     C          -0.09246900000000001          
         C14       1.0000    0.04930   0.71180   0.14740   Biso      1.000     C          -0.022747           
         C15       1.0000    0.03770   0.62700   0.25880   Biso      1.000     C          -0.083203           
         C16       1.0000    0.87700   0.21960   0.42890   Biso      1.000     C          -0.078273           
         C17       1.0000    0.82430   0.14600   0.41430   Biso      1.000     C          -0.079891           
         C18       1.0000    0.86240   0.10940   0.34430   Biso      1.000     C          -0.09246900000000001          
         C19       1.0000    0.99190   0.10790   0.21360   Biso      1.000     C          0.6585449999999999  
         C20       1.0000    0.95070   0.14740   0.28820   Biso      1.000     C          -0.022747           
         C21       1.0000    0.99790   0.22370   0.30200   Biso      1.000     C          -0.114728           
         C22       1.0000    0.96230   0.25880   0.37300   Biso      1.000     C          -0.083203           
         C23       1.0000    0.87700   0.78040   0.57110   Biso      1.000     C          -0.078273           
         C24       1.0000    0.00810   0.78640   0.10790   Biso      1.000     C          0.6585449999999999  
         C25       1.0000    0.82430   0.85400   0.58570   Biso      1.000     C          -0.079891           
         C26       1.0000    0.54930   0.64740   0.21180   Biso      1.000     C          -0.022749000000000002         
         C27       1.0000    0.67570   0.64600   0.08570   Biso      1.000     C          -0.079901           
         C28       1.0000    0.37700   0.07110   0.28040   Biso      1.000     C          -0.078273           
         C29       1.0000    0.32430   0.08570   0.35400   Biso      1.000     C          -0.079891           
         C30       1.0000    0.36240   0.15570   0.39060   Biso      1.000     C          -0.09247000000000001          
         C31       1.0000    0.49190   0.28640   0.39210   Biso      1.000     C          0.6585449999999999  
         C32       1.0000    0.45070   0.21180   0.35260   Biso      1.000     C          -0.022747           
         C33       1.0000    0.49790   0.19800   0.27630   Biso      1.000     C          -0.114728           
         C34       1.0000    0.46230   0.12700   0.24120   Biso      1.000     C          -0.083203           
         C35       1.0000    0.37700   0.92890   0.71960   Biso      1.000     C          -0.078273           
         C36       1.0000    0.32430   0.91430   0.64600   Biso      1.000     C          -0.079891           
         C37       1.0000    0.36240   0.84430   0.60940   Biso      1.000     C          -0.09247000000000001          
         C38       1.0000    0.63760   0.60940   0.15570   Biso      1.000     C          -0.09246599999999999          
         C39       1.0000    0.49190   0.71360   0.60790   Biso      1.000     C          0.6585449999999999  
         C40       1.0000    0.49790   0.80200   0.72370   Biso      1.000     C          -0.114728           
         C41       1.0000    0.46230   0.87300   0.75880   Biso      1.000     C          -0.083203           
         C42       1.0000    0.62300   0.28040   0.92890   Biso      1.000     C          -0.078273           
         C43       1.0000    0.67570   0.35400   0.91430   Biso      1.000     C          -0.079891           
         C44       1.0000    0.63760   0.39060   0.84430   Biso      1.000     C          -0.09246900000000001          
         C45       1.0000    0.50810   0.39210   0.71360   Biso      1.000     C          0.6585449999999999  
         C46       1.0000    0.54930   0.35260   0.78820   Biso      1.000     C          -0.022747           
         C47       1.0000    0.50210   0.27630   0.80200   Biso      1.000     C          -0.114728           
         C48       1.0000    0.53770   0.24120   0.87300   Biso      1.000     C          -0.083203           
         C49       1.0000    0.62300   0.71960   0.07110   Biso      1.000     C          -0.07825900000000001          
         C50       1.0000    0.45070   0.78820   0.64740   Biso      1.000     C          -0.022747           
         C51       1.0000    0.86240   0.89060   0.65570   Biso      1.000     C          -0.09246900000000001          
         C52       1.0000    0.00210   0.69800   0.22370   Biso      1.000     C          -0.114728           
         C53       1.0000    0.95070   0.85260   0.71180   Biso      1.000     C          -0.022747           
         C54       1.0000    0.99790   0.77630   0.69800   Biso      1.000     C          -0.114728           
         C55       1.0000    0.96230   0.74120   0.62700   Biso      1.000     C          -0.083203           
         C56       1.0000    0.99190   0.89210   0.78640   Biso      1.000     C          0.6585449999999999  
         H1        1.0000    0.23720   0.45120   0.87980   Biso      1.000     H          0.116427  
         H2        1.0000    0.17210   0.33510   0.94140   Biso      1.000     H          0.1183    
         H3        1.0000    0.94690   0.26400   0.74870   Biso      1.000     H          0.132223  
         H4        1.0000    0.78000   0.09600   0.03400   Biso      1.000     H          0.415394  
         H5        1.0000    0.14460   0.52350   0.24340   Biso      1.000     H          0.130771  
         H6        1.0000    0.23720   0.54880   0.12020   Biso      1.000     H          0.116427  
         H7        1.0000    0.17210   0.66490   0.05860   Biso      1.000     H          0.118299  
         H8        1.0000    0.94690   0.73600   0.25130   Biso      1.000     H          0.132223  
         H9        1.0000    0.85540   0.24340   0.47650   Biso      1.000     H          0.130771  
         H10       1.0000    0.14460   0.47650   0.75660   Biso      1.000     H          0.130771  
         H11       1.0000    0.82790   0.05860   0.33510   Biso      1.000     H          0.1183    
         H12       1.0000    0.05310   0.25130   0.26400   Biso      1.000     H          0.132223  
         H13       1.0000    0.22000   0.96600   0.09600   Biso      1.000     H          0.415394  
         H14       1.0000    0.85540   0.75660   0.52350   Biso      1.000     H          0.130771  
         H15       1.0000    0.76280   0.87980   0.54880   Biso      1.000     H          0.116427  
         H16       1.0000    0.82790   0.94140   0.66490   Biso      1.000     H          0.1183    
         H17       1.0000    0.05310   0.74870   0.73600   Biso      1.000     H          0.132223  
         H18       1.0000    0.22000   0.03400   0.90400   Biso      1.000     H          0.415394  
         H19       1.0000    0.78000   0.90400   0.96600   Biso      1.000     H          0.415394  
         H20       1.0000    0.76280   0.12020   0.45120   Biso      1.000     H          0.116426  
         H21       1.0000    0.67210   0.55860   0.16490   Biso      1.000     H          0.1183    
         H22       1.0000    0.44690   0.75130   0.23600   Biso      1.000     H          0.132223  
         H23       1.0000    0.72000   0.59600   0.46600   Biso      1.000     H          0.415394  
         H24       1.0000    0.35540   0.02350   0.25660   Biso      1.000     H          0.130771  
         H25       1.0000    0.26280   0.04880   0.37980   Biso      1.000     H          0.116427  
         H26       1.0000    0.32790   0.16490   0.44140   Biso      1.000     H          0.1183    
         H27       1.0000    0.72000   0.40400   0.53400   Biso      1.000     H          0.415394  
         H28       1.0000    0.35540   0.97650   0.74340   Biso      1.000     H          0.130771  
         H29       1.0000    0.26280   0.95120   0.62020   Biso      1.000     H          0.116426  
         H30       1.0000    0.32790   0.83510   0.55860   Biso      1.000     H          0.118299  
         H31       1.0000    0.55310   0.23600   0.24870   Biso      1.000     H          0.132223  
         H32       1.0000    0.28000   0.46600   0.40400   Biso      1.000     H          0.415394  
         H33       1.0000    0.64460   0.25660   0.97650   Biso      1.000     H          0.130771  
         H34       1.0000    0.73720   0.37980   0.95120   Biso      1.000     H          0.116427  
         H35       1.0000    0.67210   0.44140   0.83510   Biso      1.000     H          0.1183    
         H36       1.0000    0.44690   0.24870   0.76400   Biso      1.000     H          0.132223  
         H37       1.0000    0.28000   0.53400   0.59600   Biso      1.000     H          0.415394  
         H38       1.0000    0.64460   0.74340   0.02350   Biso      1.000     H          0.13077   
         H39       1.0000    0.55310   0.76400   0.75130   Biso      1.000     H          0.132223  
         H40       1.0000    0.73720   0.62020   0.04880   Biso      1.000     H          0.116427  
         O1        1.0000    0.53070   0.53390   0.28920   Biso      1.000     O          -0.700836           
         O2        1.0000    0.45620   0.64820   0.34130   Biso      1.000     O          -0.668914           
         O3        1.0000    0.41810   0.89040   0.17950   Biso      1.000     O          -0.583696           
         O4        1.0000    0.61570   0.89520   0.07530   Biso      1.000     O          -0.7386659999999999           
         O5        1.0000    0.35300   0.84910   0.04940   Biso      1.000     O          -0.7299439999999999           
         O6        1.0000    0.87920   0.92750   0.97410   Biso      1.000     O          -1.154595           
         O7        1.0000    0.91810   0.32050   0.60960   Biso      1.000     O          -0.583696           
         O8        1.0000    0.95620   0.15870   0.85180   Biso      1.000     O          -0.668914           
         O9        1.0000    0.11570   0.42470   0.60480   Biso      1.000     O          -0.7386659999999999           
         O10       1.0000    0.87920   0.07250   0.02590   Biso      1.000     O          -1.154595           
         O11       1.0000    0.37920   0.52590   0.57250   Biso      1.000     O          -1.154595           
         O12       1.0000    0.85300   0.45060   0.65090   Biso      1.000     O          -0.7299439999999999           
         O13       1.0000    0.03070   0.21080   0.96610   Biso      1.000     O          -0.700836           
         O14       1.0000    0.35300   0.15090   0.95060   Biso      1.000     O          -0.7299439999999999           
         O15       1.0000    0.38430   0.07530   0.10480   Biso      1.000     O          -0.7386659999999999           
         O16       1.0000    0.41810   0.10960   0.82050   Biso      1.000     O          -0.583696           
         O17       1.0000    0.45620   0.35180   0.65870   Biso      1.000     O          -0.668914           
         O18       1.0000    0.53070   0.46610   0.71080   Biso      1.000     O          -0.700835           
         O19       1.0000    0.37920   0.47410   0.42750   Biso      1.000     O          -1.154595           
         O20       1.0000    0.64700   0.95060   0.84910   Biso      1.000     O          -0.7299439999999999           
         O21       1.0000    0.38430   0.92470   0.89520   Biso      1.000     O          -0.7386659999999999           
         O22       1.0000    0.54380   0.34130   0.35180   Biso      1.000     O          -0.668914           
         O23       1.0000    0.58190   0.17950   0.10960   Biso      1.000     O          -0.583696           
         O24       1.0000    0.64700   0.04940   0.15090   Biso      1.000     O          -0.7299439999999999           
         O25       1.0000    0.62080   0.42750   0.52590   Biso      1.000     O          -1.154595           
         O26       1.0000    0.46930   0.71080   0.53390   Biso      1.000     O          -0.700835           
         O27       1.0000    0.54380   0.65870   0.64820   Biso      1.000     O          -0.668914           
         O28       1.0000    0.03070   0.78920   0.03390   Biso      1.000     O          -0.700836           
         O29       1.0000    0.58190   0.82050   0.89040   Biso      1.000     O          -0.583696           
         O30       1.0000    0.61570   0.10480   0.92470   Biso      1.000     O          -0.7386659999999999           
         O31       1.0000    0.95620   0.84130   0.14820   Biso      1.000     O          -0.668914           
         O32       1.0000    0.62080   0.57250   0.47410   Biso      1.000     O          -1.154595           
         O33       1.0000    0.11570   0.57530   0.39520   Biso      1.000     O          -0.7386659999999999           
         O34       1.0000    0.91810   0.67950   0.39040   Biso      1.000     O          -0.583696           
         O35       1.0000    0.46930   0.28920   0.46610   Biso      1.000     O          -0.700836           
         O36       1.0000    0.14700   0.65090   0.54940   Biso      1.000     O          -0.7299439999999999           
         O37       1.0000    0.88430   0.60480   0.57530   Biso      1.000     O          -0.7386659999999999           
         O38       1.0000    0.08190   0.60960   0.67950   Biso      1.000     O          -0.583696           
         O39       1.0000    0.04380   0.85180   0.84130   Biso      1.000     O          -0.668914           
         O40       1.0000    0.12080   0.97410   0.07250   Biso      1.000     O          -1.154595           
         O41       1.0000    0.96930   0.96610   0.78920   Biso      1.000     O          -0.700836           
         O42       1.0000    0.88430   0.39520   0.42470   Biso      1.000     O          -0.7386659999999999           
         O43       1.0000    0.08190   0.39040   0.32050   Biso      1.000     O          -0.583696           
         O44       1.0000    0.04380   0.14820   0.15870   Biso      1.000     O          -0.668914           
         O45       1.0000    0.96930   0.03390   0.21080   Biso      1.000     O          -0.700835           
         O46       1.0000    0.12080   0.02590   0.92750   Biso      1.000     O          -1.154595           
         O47       1.0000    0.85300   0.54940   0.34910   Biso      1.000     O          -0.7299439999999999           
         O48       1.0000    0.14700   0.34910   0.45060   Biso      1.000     O          -0.7299439999999999           
         S1        1.0000    0.02364   0.35614   0.39234   Biso      1.000     S          1.275773  
         S2        1.0000    0.02364   0.64386   0.60766   Biso      1.000     S          1.275773  
         S3        1.0000    0.97636   0.60766   0.35614   Biso      1.000     S          1.275773  
         S4        1.0000    0.52364   0.89234   0.85614   Biso      1.000     S          1.275773  
         S5        1.0000    0.47636   0.85614   0.10766   Biso      1.000     S          1.275774  
         S6        1.0000    0.47636   0.14386   0.89234   Biso      1.000     S          1.275773  
         S7        1.0000    0.52364   0.10766   0.14386   Biso      1.000     S          1.275773  
         S8        1.0000    0.97636   0.39234   0.64386   Biso      1.000     S          1.275773  
         Tb1       1.0000    0.64980   0.46267   0.39018   Biso      1.000     Tb          2.200529  
         Tb2       1.0000    0.64980   0.53733   0.60982   Biso      1.000     Tb          2.200529  
         Tb3       1.0000    0.35020   0.39018   0.53733   Biso      1.000     Tb          2.200529  
         Tb4       1.0000    0.35020   0.60982   0.46267   Biso      1.000     Tb          2.200529  
         Tb5       1.0000    0.85020   0.03733   0.89018   Biso      1.000     Tb          2.200529  
         Tb6       1.0000    0.85020   0.96267   0.10982   Biso      1.000     Tb          2.200529  
         Tb7       1.0000    0.14980   0.10982   0.03733   Biso      1.000     Tb          2.200529  
         Tb8       1.0000    0.14980   0.89018   0.96267   Biso      1.000     Tb          2.200529 