
##########################################################################
#               Crystallographic Information Format file
#               Produced by PyCifRW module
#
#  This is a CIF file.  CIF has been adopted by the International
#  Union of Crystallography as the standard for data archiving and
#  transmission.
#
#  For information on this file format, follow the CIF links at
#  http://www.iucr.org
##########################################################################

data_image0

_cell_length_a                          7.358
_cell_length_b                          9.997
_cell_length_c                          15.0578
_cell_angle_alpha                       109.387
_cell_angle_beta                        98.498
_cell_angle_gamma                       90
_symmetry_space_group_name_H-M          'P 1'
_symmetry_int_tables_number             1
loop_
  _symmetry_equiv_pos_as_xyz
         'x, y, z' 
loop_
  _atom_site_label
  _atom_site_occupancy
  _atom_site_fract_x
  _atom_site_fract_y
  _atom_site_fract_z
  _atom_site_thermal_displace_type
  _atom_site_B_iso_or_equiv
  _atom_site_type_symbol
  _atom_site_charge
         C1        1.0000    0.89350   0.20693   0.55686   Biso      1.000     C          0.296469  
         C2        1.0000    0.66100   0.87381   0.30082   Biso      1.000     C          0.10223   
         C3        1.0000    0.60650   0.65007   0.44314   Biso      1.000     C          0.295207  
         C4        1.0000    0.77990   0.87035   0.92050   Biso      1.000     C          0.10138   
         C5        1.0000    0.90840   0.77942   0.67584   Biso      1.000     C          0.10117899999999999           
         C6        1.0000    0.86820   0.85958   0.76456   Biso      1.000     C          -0.162908           
         C7        1.0000    0.81670   0.79181   0.82342   Biso      1.000     C          0.10381300000000002           
         C8        1.0000    0.79860   0.64464   0.78868   Biso      1.000     C          -0.194    
         C9        1.0000    0.83900   0.57299   0.69918   Biso      1.000     C          0.101961  
         C10       1.0000    0.63180   0.09502   0.23544   Biso      1.000     C          -0.165947           
         C11       1.0000    0.59160   0.10358   0.32416   Biso      1.000     C          0.106398  
         C12       1.0000    0.72010   0.94985   0.07950   Biso      1.000     C          0.10030700000000001           
         C13       1.0000    0.16100   0.42701   0.30082   Biso      1.000     C          0.10195599999999999           
         C14       1.0000    0.20140   0.35536   0.21132   Biso      1.000     C          -0.193998           
         C15       1.0000    0.18330   0.20819   0.17658   Biso      1.000     C          0.10381199999999999           
         C16       1.0000    0.13180   0.14042   0.23544   Biso      1.000     C          -0.162904           
         C17       1.0000    0.09160   0.22058   0.32416   Biso      1.000     C          0.101178  
         C18       1.0000    0.22010   0.12965   0.07950   Biso      1.000     C          0.101381  
         C19       1.0000    0.39350   0.34993   0.55686   Biso      1.000     C          0.295207  
         C20       1.0000    0.33900   0.12619   0.69918   Biso      1.000     C          0.10223   
         C21       1.0000    0.29860   0.14404   0.78868   Biso      1.000     C          -0.192423           
         C22       1.0000    0.31670   0.03161   0.82342   Biso      1.000     C          0.104676  
         C23       1.0000    0.36820   0.90498   0.76456   Biso      1.000     C          -0.165943           
         C24       1.0000    0.40840   0.89642   0.67584   Biso      1.000     C          0.106397  
         C25       1.0000    0.27990   0.05015   0.92050   Biso      1.000     C          0.10030700000000001           
         C26       1.0000    0.10650   0.79307   0.44314   Biso      1.000     C          0.296469  
         C27       1.0000    0.70140   0.85596   0.21132   Biso      1.000     C          -0.192423           
         C28       1.0000    0.68330   0.96839   0.17658   Biso      1.000     C          0.10468   
         Cd1       1.0000    0.00000   0.50000   0.50000   Biso      1.000     Cd          0.719018  
         Cd2       1.0000    0.50000   0.00000   0.50000   Biso      1.000     Cd          0.720087  
         H1        1.0000    0.37620   0.82580   0.78400   Biso      1.000     H          0.131544  
         H2        1.0000    0.44380   0.81010   0.63700   Biso      1.000     H          0.09435   
         H3        1.0000    0.82380   0.47440   0.67640   Biso      1.000     H          0.097611  
         H4        1.0000    0.75970   0.59490   0.82540   Biso      1.000     H          0.128276  
         H5        1.0000    0.87620   0.95820   0.78400   Biso      1.000     H          0.13087200000000002           
         H6        1.0000    0.67620   0.79800   0.32360   Biso      1.000     H          0.096381  
         H7        1.0000    0.74030   0.76950   0.17460   Biso      1.000     H          0.127724  
         H8        1.0000    0.62380   0.17420   0.21600   Biso      1.000     H          0.131545  
         H9        1.0000    0.94380   0.82690   0.63700   Biso      1.000     H          0.096232  
         H10       1.0000    0.17620   0.52560   0.32360   Biso      1.000     H          0.097611  
         H11       1.0000    0.24030   0.40510   0.17460   Biso      1.000     H          0.128276  
         H12       1.0000    0.12380   0.04180   0.21600   Biso      1.000     H          0.13087200000000002           
         H13       1.0000    0.05620   0.17310   0.36300   Biso      1.000     H          0.096232  
         H14       1.0000    0.32380   0.20200   0.67640   Biso      1.000     H          0.096381  
         H15       1.0000    0.25970   0.23050   0.82540   Biso      1.000     H          0.127724  
         H16       1.0000    0.55620   0.18990   0.36300   Biso      1.000     H          0.09435   
         N1        1.0000    0.60130   0.99415   0.35670   Biso      1.000     N          -0.20444  
         N2        1.0000    0.39870   0.00585   0.64330   Biso      1.000     N          -0.20444  
         N3        1.0000    0.42960   0.23351   0.52482   Biso      1.000     N          -0.460559           
         N4        1.0000    0.23290   0.99315   0.04630   Biso      1.000     N          -0.184952           
         N5        1.0000    0.10130   0.36255   0.35670   Biso      1.000     N          -0.202287           
         N6        1.0000    0.92960   0.29131   0.52482   Biso      1.000     N          -0.461037           
         N7        1.0000    0.73290   0.05315   0.04630   Biso      1.000     N          -0.185649           
         N8        1.0000    0.57040   0.76649   0.47518   Biso      1.000     N          -0.460559           
         N9        1.0000    0.07040   0.70869   0.47518   Biso      1.000     N          -0.461037           
         N10       1.0000    0.89870   0.63745   0.64330   Biso      1.000     N          -0.20228800000000002          
         N11       1.0000    0.26710   0.94685   0.95370   Biso      1.000     N          -0.185641           
         N12       1.0000    0.76710   0.00685   0.95370   Biso      1.000     N          -0.184944           
         S1        1.0000    0.25000   0.21413   0.00000   Biso      1.000     S          0.085893  
         S2        1.0000    0.75000   0.78587   0.00000   Biso      1.000     S          0.08589400000000001           
         S3        1.0000    0.15913   0.91305   0.39684   Biso      1.000     S          -0.354392           
         S4        1.0000    0.34087   0.51621   0.60316   Biso      1.000     S          -0.35347199999999995          
         S5        1.0000    0.84087   0.08695   0.60316   Biso      1.000     S          -0.354392           
         S6        1.0000    0.65913   0.48379   0.39684   Biso      1.000     S          -0.35347199999999995 