
##########################################################################
#               Crystallographic Information Format file
#               Produced by PyCifRW module
#
#  This is a CIF file.  CIF has been adopted by the International
#  Union of Crystallography as the standard for data archiving and
#  transmission.
#
#  For information on this file format, follow the CIF links at
#  http://www.iucr.org
##########################################################################

data_image0

_cell_length_a                          11.8074
_cell_length_b                          12.0287
_cell_length_c                          12.5815
_cell_angle_alpha                       77.508
_cell_angle_beta                        88.505
_cell_angle_gamma                       62.823
_symmetry_space_group_name_H-M          'P 1'
_symmetry_int_tables_number             1
loop_
  _symmetry_equiv_pos_as_xyz
         'x, y, z' 
loop_
  _atom_site_label
  _atom_site_occupancy
  _atom_site_fract_x
  _atom_site_fract_y
  _atom_site_fract_z
  _atom_site_thermal_displace_type
  _atom_site_B_iso_or_equiv
  _atom_site_type_symbol
  _atom_site_charge
         C1        1.0000    0.01650   0.65590   0.38980   Biso      1.000     C          -0.00675  
         C2        1.0000    0.34100   0.13640   0.62850   Biso      1.000     C          -0.29685900000000004          
         C3        1.0000    0.11550   0.26340   0.47220   Biso      1.000     C          0.103744  
         C4        1.0000    0.98350   0.18630   0.45930   Biso      1.000     C          -0.009336           
         C5        1.0000    0.05090   0.12990   0.55740   Biso      1.000     C          -0.10278699999999999          
         C6        1.0000    0.35020   0.99140   0.04080   Biso      1.000     C          0.104046  
         C7        1.0000    0.14090   0.10120   0.00300   Biso      1.000     C          -0.09593099999999999          
         C8        1.0000    0.16980   0.05130   0.11070   Biso      1.000     C          -0.011477           
         C9        1.0000    0.65480   0.02320   0.76250   Biso      1.000     C          0.088362  
         C10       1.0000    0.71230   0.11200   0.61840   Biso      1.000     C          -0.014764           
         C11       1.0000    0.58840   0.15250   0.60570   Biso      1.000     C          -0.085597           
         C12       1.0000    0.42720   0.74800   0.85330   Biso      1.000     C          0.22546999999999998           
         C13       1.0000    0.42860   0.10710   0.71580   Biso      1.000     C          0.226923  
         C14       1.0000    0.65260   0.67900   0.89030   Biso      1.000     C          0.224962  
         C15       1.0000    0.55410   0.77070   0.70440   Biso      1.000     C          0.236473  
         C16       1.0000    0.43520   0.79040   0.74340   Biso      1.000     C          -0.327687           
         C17       1.0000    0.20360   0.80000   0.82230   Biso      1.000     C          0.10498800000000001           
         C18       1.0000    0.13870   0.80460   0.98300   Biso      1.000     C          -0.016362           
         C19       1.0000    0.26640   0.77060   0.99420   Biso      1.000     C          -0.092554           
         C20       1.0000    0.78160   0.54030   0.06300   Biso      1.000     C          0.138432  
         C21       1.0000    0.85910   0.65790   0.95910   Biso      1.000     C          -0.090695           
         C22       1.0000    0.93440   0.58940   0.05280   Biso      1.000     C          -0.025653           
         C23       1.0000    0.48370   0.81860   0.51070   Biso      1.000     C          0.121111  
         C24       1.0000    0.65380   0.83360   0.54530   Biso      1.000     C          -0.11456199999999998          
         C25       1.0000    0.62430   0.86250   0.43330   Biso      1.000     C          0.002089  
         C26       1.0000    0.66320   0.71340   0.77650   Biso      1.000     C          -0.288555           
         C27       1.0000    0.39920   0.08870   0.82460   Biso      1.000     C          -0.30332  
         C28       1.0000    0.53340   0.69690   0.92810   Biso      1.000     C          -0.30440500000000004          
         C29       1.0000    0.15930   0.75140   0.37850   Biso      1.000     C          -0.0075   
         C30       1.0000    0.97710   0.80520   0.63070   Biso      1.000     C          0.567538  
         C31       1.0000    0.26070   0.77640   0.32140   Biso      1.000     C          0.581058  
         C32       1.0000    0.11290   0.68140   0.33560   Biso      1.000     C          -0.134866           
         C33       1.0000    0.62110   0.10010   0.17590   Biso      1.000     C          -0.010638           
         C34       1.0000    0.65070   0.18180   0.22420   Biso      1.000     C          -0.127814           
         C35       1.0000    0.27960   0.09220   0.84400   Biso      1.000     C          0.229758  
         C36       1.0000    0.74690   0.21080   0.18670   Biso      1.000     C          -0.016498           
         C37       1.0000    0.80590   0.16960   0.09370   Biso      1.000     C          -0.13864400000000002          
         C38       1.0000    0.11080   0.79630   0.47230   Biso      1.000     C          -0.15344100000000002          
         C39       1.0000    0.96290   0.58170   0.34740   Biso      1.000     C          0.56281   
         C40       1.0000    0.78110   0.09140   0.04580   Biso      1.000     C          -0.024528           
         C41       1.0000    0.68490   0.05710   0.08960   Biso      1.000     C          -0.145257           
         C42       1.0000    0.02280   0.76460   0.52500   Biso      1.000     C          -0.014106           
         C43       1.0000    0.97210   0.69840   0.48620   Biso      1.000     C          -0.138548           
         C44       1.0000    0.51730   0.06400   0.21740   Biso      1.000     C          0.570543  
         C45       1.0000    0.19090   0.11940   0.76180   Biso      1.000     C          -0.275621           
         C46       1.0000    0.22320   0.14320   0.65500   Biso      1.000     C          0.2315    
         C47       1.0000    0.78140   0.29030   0.24140   Biso      1.000     C          0.569237  
         C48       1.0000    0.84680   0.05150   0.94950   Biso      1.000     C          0.5867100000000001  
         Cu1       1.0000    0.41290   0.90296   0.27391   Biso      1.000     Cu          0.772041  
         Cu2       1.0000    0.92878   0.91965   0.79521   Biso      1.000     Cu          0.7537020000000001  
         Cu3       1.0000    0.96266   0.39111   0.25823   Biso      1.000     Cu          0.786821  
         H1        1.0000    0.41300   0.80380   0.52110   Biso      1.000     H          0.099886  
         H2        1.0000    0.08530   0.81340   0.03950   Biso      1.000     H          0.133672  
         H3        1.0000    0.72820   0.50440   0.08840   Biso      1.000     H          0.11170699999999999           
         H4        1.0000    0.90980   0.68150   0.52210   Biso      1.000     H          0.122454  
         H5        1.0000    0.13820   0.84720   0.49850   Biso      1.000     H          0.114593  
         H6        1.0000    0.87140   0.71420   0.90230   Biso      1.000     H          0.132303  
         H7        1.0000    0.67030   0.88450   0.37900   Biso      1.000     H          0.129631  
         H8        1.0000    0.00850   0.59160   0.07270   Biso      1.000     H          0.131618  
         H9        1.0000    0.72240   0.83340   0.58020   Biso      1.000     H          0.134017  
         H10       1.0000    0.31590   0.75370   0.05760   Biso      1.000     H          0.149894  
         H11       1.0000    0.14390   0.65190   0.27310   Biso      1.000     H          0.133674  
         H12       1.0000    0.11230   0.12200   0.77660   Biso      1.000     H          0.169245  
         H13       1.0000    0.36200   0.83200   0.69530   Biso      1.000     H          0.138917  
         H14       1.0000    0.20590   0.80510   0.74750   Biso      1.000     H          0.10557000000000001           
         H15       1.0000    0.45610   0.07470   0.88170   Biso      1.000     H          0.15703   
         H16       1.0000    0.36060   0.15070   0.55630   Biso      1.000     H          0.166825  
         H17       1.0000    0.16380   0.30700   0.45510   Biso      1.000     H          0.11623900000000001           
         H18       1.0000    0.92330   0.16780   0.43180   Biso      1.000     H          0.131348  
         H19       1.0000    0.04270   0.06750   0.61040   Biso      1.000     H          0.122993  
         H20       1.0000    0.66550   0.00400   0.05810   Biso      1.000     H          0.110295  
         H21       1.0000    0.06030   0.15090   0.96590   Biso      1.000     H          0.14922   
         H22       1.0000    0.43700   0.95220   0.03140   Biso      1.000     H          0.10471300000000001           
         H23       1.0000    0.86420   0.19720   0.06400   Biso      1.000     H          0.11241   
         H24       1.0000    0.65630   0.97470   0.83140   Biso      1.000     H          0.106715  
         H25       1.0000    0.76180   0.13510   0.56850   Biso      1.000     H          0.133954  
         H26       1.0000    0.53540   0.21110   0.54480   Biso      1.000     H          0.137765  
         H27       1.0000    0.60520   0.21530   0.28080   Biso      1.000     H          0.125184  
         H28       1.0000    0.52570   0.67480   0.00240   Biso      1.000     H          0.159218  
         H29       1.0000    0.74230   0.69780   0.75050   Biso      1.000     H          0.16567   
         H30       1.0000    0.11020   0.05980   0.16220   Biso      1.000     H          0.131583  
         N1        1.0000    0.10180   0.82390   0.87340   Biso      1.000     N          -0.273512           
         N2        1.0000    0.51480   0.85270   0.41720   Biso      1.000     N          -0.23998200000000003          
         N3        1.0000    0.56200   0.80540   0.59450   Biso      1.000     N          0.016891999999999997          
         N4        1.0000    0.88380   0.51500   0.11490   Biso      1.000     N          -0.24561599999999997          
         N5        1.0000    0.75860   0.62590   0.96590   Biso      1.000     N          0.003071  
         N6        1.0000    0.30480   0.76720   0.88930   Biso      1.000     N          0.009982  
         N7        1.0000    0.25840   0.06220   0.95960   Biso      1.000     N          -0.001492           
         N8        1.0000    0.54960   0.09770   0.69220   Biso      1.000     N          0.024408000000000003          
         N9        1.0000    0.30240   0.98440   0.13440   Biso      1.000     N          -0.257758           
         N10       1.0000    0.13140   0.17790   0.56650   Biso      1.000     N          0.022419  
         N11       1.0000    0.02060   0.27710   0.40670   Biso      1.000     N          -0.255971           
         N12       1.0000    0.75450   0.02940   0.71910   Biso      1.000     N          -0.24973499999999998          
         O1        1.0000    0.89040   0.28450   0.21980   Biso      1.000     O          -0.599237           
         O2        1.0000    0.70720   0.35920   0.29600   Biso      1.000     O          -0.557673           
         O3        1.0000    0.42920   0.13780   0.26220   Biso      1.000     O          -0.595318           
         O4        1.0000    0.53140   0.96100   0.20050   Biso      1.000     O          -0.5403279999999999           
         O5        1.0000    0.31350   0.71910   0.24940   Biso      1.000     O          -0.584072           
         O6        1.0000    0.00330   0.88770   0.65760   Biso      1.000     O          -0.563635           
         O7        1.0000    0.92040   0.75570   0.69160   Biso      1.000     O          -0.5964149999999999           
         O8        1.0000    0.84900   0.60490   0.36270   Biso      1.000     O          -0.586274           
         O9        1.0000    0.03060   0.50060   0.29490   Biso      1.000     O          -0.553758           
         O10       1.0000    0.89280   0.10960   0.89030   Biso      1.000     O          -0.585028           
         O11       1.0000    0.28960   0.85380   0.35160   Biso      1.000     O          -0.568661           
         O12       1.0000    0.85040   0.94780   0.93300   Biso      1.000     O          -0.574213 