
##########################################################################
#               Crystallographic Information Format file
#               Produced by PyCifRW module
#
#  This is a CIF file.  CIF has been adopted by the International
#  Union of Crystallography as the standard for data archiving and
#  transmission.
#
#  For information on this file format, follow the CIF links at
#  http://www.iucr.org
##########################################################################

data_image0

_cell_length_a                          6.8796
_cell_length_b                          9.856
_cell_length_c                          11.067
_cell_angle_alpha                       90
_cell_angle_beta                        90
_cell_angle_gamma                       90
_symmetry_space_group_name_H-M          'P 1'
_symmetry_int_tables_number             1
loop_
  _symmetry_equiv_pos_as_xyz
         'x, y, z' 
loop_
  _atom_site_label
  _atom_site_occupancy
  _atom_site_fract_x
  _atom_site_fract_y
  _atom_site_fract_z
  _atom_site_thermal_displace_type
  _atom_site_B_iso_or_equiv
  _atom_site_type_symbol
  _atom_site_charge
         C1        1.0000    0.05190   0.71766   0.05256   Biso      1.000     C          0.652684  
         C2        1.0000    0.64380   0.43909   0.84435   Biso      1.000     C          -0.172702           
         C3        1.0000    0.82840   0.40364   0.77913   Biso      1.000     C          0.6467    
         C4        1.0000    0.67160   0.59636   0.27913   Biso      1.000     C          0.6467    
         C5        1.0000    0.00610   0.86592   0.06486   Biso      1.000     C          -0.196707           
         C6        1.0000    0.14380   0.06091   0.15565   Biso      1.000     C          -0.172702           
         C7        1.0000    0.32840   0.09636   0.22087   Biso      1.000     C          0.6467    
         C8        1.0000    0.44810   0.28234   0.55256   Biso      1.000     C          0.652683  
         C9        1.0000    0.49390   0.13408   0.56486   Biso      1.000     C          -0.196707           
         C10       1.0000    0.35620   0.93909   0.65565   Biso      1.000     C          -0.172702           
         C11       1.0000    0.17160   0.90364   0.72087   Biso      1.000     C          0.6467    
         C12       1.0000    0.50610   0.63408   0.93514   Biso      1.000     C          -0.196706           
         C13       1.0000    0.55190   0.78234   0.94744   Biso      1.000     C          0.652682  
         C14       1.0000    0.94810   0.21766   0.44744   Biso      1.000     C          0.652683  
         C15       1.0000    0.99390   0.36592   0.43514   Biso      1.000     C          -0.196707           
         C16       1.0000    0.85620   0.56091   0.34435   Biso      1.000     C          -0.172702           
         H1        1.0000    0.53420   0.39470   0.80590   Biso      1.000     H          0.128162  
         H2        1.0000    0.34920   0.90850   0.57250   Biso      1.000     H          0.12624000000000002           
         H3        1.0000    0.46580   0.89470   0.69410   Biso      1.000     H          0.128162  
         H4        1.0000    0.63090   0.12190   0.58250   Biso      1.000     H          0.136991  
         H5        1.0000    0.46460   0.08720   0.48990   Biso      1.000     H          0.120782  
         H6        1.0000    0.65080   0.40850   0.92750   Biso      1.000     H          0.12624000000000002           
         H7        1.0000    0.15080   0.09150   0.07250   Biso      1.000     H          0.12624000000000002           
         H8        1.0000    0.86910   0.87810   0.08250   Biso      1.000     H          0.136991  
         H9        1.0000    0.96460   0.41280   0.51010   Biso      1.000     H          0.12078299999999999           
         H10       1.0000    0.13090   0.37810   0.41750   Biso      1.000     H          0.136991  
         H11       1.0000    0.96580   0.60530   0.30590   Biso      1.000     H          0.128162  
         H12       1.0000    0.84920   0.59150   0.42750   Biso      1.000     H          0.12623900000000002           
         H13       1.0000    0.03540   0.91280   0.98990   Biso      1.000     H          0.120782  
         H14       1.0000    0.36910   0.62190   0.91750   Biso      1.000     H          0.136991  
         H15       1.0000    0.03420   0.10530   0.19410   Biso      1.000     H          0.128162  
         H16       1.0000    0.53540   0.58720   0.01010   Biso      1.000     H          0.120782  
         Mn1       1.0000    0.12553   0.20259   0.71068   Biso      1.000     Mn          0.974722  
         Mn2       1.0000    0.62553   0.29741   0.28932   Biso      1.000     Mn          0.974722  
         Mn3       1.0000    0.87447   0.70259   0.78932   Biso      1.000     Mn          0.974723  
         Mn4       1.0000    0.37447   0.79741   0.21068   Biso      1.000     Mn          0.974722  
         O1        1.0000    0.83612   0.16413   0.37357   Biso      1.000     O          -0.565697           
         O2        1.0000    0.56352   0.50730   0.24185   Biso      1.000     O          -0.541333           
         O3        1.0000    0.64170   0.72191   0.26840   Biso      1.000     O          -0.566968           
         O4        1.0000    0.61932   0.58063   0.84068   Biso      1.000     O          -0.17435599999999998          
         O5        1.0000    0.47270   0.84520   0.03087   Biso      1.000     O          -0.5685180000000001           
         O6        1.0000    0.66388   0.83587   0.87357   Biso      1.000     O          -0.565697           
         O7        1.0000    0.93648   0.49270   0.74185   Biso      1.000     O          -0.541333           
         O8        1.0000    0.85830   0.27809   0.76840   Biso      1.000     O          -0.566967           
         O9        1.0000    0.11932   0.91937   0.15932   Biso      1.000     O          -0.17435499999999998          
         O10       1.0000    0.97270   0.65480   0.96913   Biso      1.000     O          -0.568519           
         O11       1.0000    0.16388   0.66413   0.12643   Biso      1.000     O          -0.565697           
         O12       1.0000    0.43648   0.00730   0.25815   Biso      1.000     O          -0.541333           
         O13       1.0000    0.35830   0.22191   0.23160   Biso      1.000     O          -0.566968           
         O14       1.0000    0.38068   0.08063   0.65932   Biso      1.000     O          -0.17435499999999998          
         O15       1.0000    0.52730   0.34520   0.46913   Biso      1.000     O          -0.5685180000000001           
         O16       1.0000    0.33612   0.33587   0.62643   Biso      1.000     O          -0.565697           
         O17       1.0000    0.06352   0.99270   0.75815   Biso      1.000     O          -0.541333           
         O18       1.0000    0.14170   0.77809   0.73160   Biso      1.000     O          -0.566968           
         O19       1.0000    0.02730   0.15480   0.53087   Biso      1.000     O          -0.5685180000000001           
         O20       1.0000    0.88068   0.41937   0.34068   Biso      1.000     O          -0.17435499999999998 