
##########################################################################
#               Crystallographic Information Format file
#               Produced by PyCifRW module
#
#  This is a CIF file.  CIF has been adopted by the International
#  Union of Crystallography as the standard for data archiving and
#  transmission.
#
#  For information on this file format, follow the CIF links at
#  http://www.iucr.org
##########################################################################

data_image0

_cell_length_a                          6.9643
_cell_length_b                          9.9724
_cell_length_c                          11.1951
_cell_angle_alpha                       90
_cell_angle_beta                        90
_cell_angle_gamma                       90
_symmetry_space_group_name_H-M          'P 1'
_symmetry_int_tables_number             1
loop_
  _symmetry_equiv_pos_as_xyz
         'x, y, z' 
loop_
  _atom_site_label
  _atom_site_occupancy
  _atom_site_fract_x
  _atom_site_fract_y
  _atom_site_fract_z
  _atom_site_thermal_displace_type
  _atom_site_B_iso_or_equiv
  _atom_site_type_symbol
  _atom_site_charge
         C1        1.0000    0.05170   0.71800   0.55320   Biso      1.000     C          0.649883  
         C2        1.0000    0.64480   0.43930   0.34440   Biso      1.000     C          -0.178593           
         C3        1.0000    0.82890   0.40350   0.27920   Biso      1.000     C          0.639764  
         C4        1.0000    0.67110   0.59650   0.77920   Biso      1.000     C          0.639764  
         C5        1.0000    0.00630   0.86550   0.56470   Biso      1.000     C          -0.213899           
         C6        1.0000    0.14480   0.06070   0.65560   Biso      1.000     C          -0.178593           
         C7        1.0000    0.32890   0.09650   0.72080   Biso      1.000     C          0.639764  
         C8        1.0000    0.44830   0.28200   0.05320   Biso      1.000     C          0.649883  
         C9        1.0000    0.49370   0.13450   0.06470   Biso      1.000     C          -0.213899           
         C10       1.0000    0.35520   0.93930   0.15560   Biso      1.000     C          -0.178593           
         C11       1.0000    0.17110   0.90350   0.22080   Biso      1.000     C          0.639764  
         C12       1.0000    0.50630   0.63450   0.43530   Biso      1.000     C          -0.213898           
         C13       1.0000    0.55170   0.78200   0.44680   Biso      1.000     C          0.649882  
         C14       1.0000    0.94830   0.21800   0.94680   Biso      1.000     C          0.649883  
         C15       1.0000    0.99370   0.36550   0.93530   Biso      1.000     C          -0.213899           
         C16       1.0000    0.85520   0.56070   0.84440   Biso      1.000     C          -0.178593           
         H1        1.0000    0.65200   0.40900   0.42600   Biso      1.000     H          0.133039  
         H2        1.0000    0.45900   0.90000   0.19900   Biso      1.000     H          0.132158  
         H3        1.0000    0.34800   0.90900   0.07400   Biso      1.000     H          0.133039  
         H4        1.0000    0.61900   0.12600   0.07700   Biso      1.000     H          0.142053  
         H5        1.0000    0.47200   0.08800   0.98900   Biso      1.000     H          0.128815  
         H6        1.0000    0.54100   0.40000   0.30100   Biso      1.000     H          0.132158  
         H7        1.0000    0.04100   0.10000   0.69900   Biso      1.000     H          0.132158  
         H8        1.0000    0.88100   0.87400   0.57700   Biso      1.000     H          0.142053  
         H9        1.0000    0.97200   0.41200   0.01100   Biso      1.000     H          0.128816  
         H10       1.0000    0.11900   0.37400   0.92300   Biso      1.000     H          0.142053  
         H11       1.0000    0.84800   0.59100   0.92600   Biso      1.000     H          0.133038  
         H12       1.0000    0.95900   0.60000   0.80100   Biso      1.000     H          0.132157  
         H13       1.0000    0.02800   0.91200   0.48900   Biso      1.000     H          0.128816  
         H14       1.0000    0.38100   0.62600   0.42300   Biso      1.000     H          0.142053  
         H15       1.0000    0.15200   0.09100   0.57400   Biso      1.000     H          0.133038  
         H16       1.0000    0.52800   0.58800   0.51100   Biso      1.000     H          0.128815  
         Mn1       1.0000    0.12570   0.20269   0.21081   Biso      1.000     Mn          0.98593   
         Mn2       1.0000    0.62570   0.29731   0.78919   Biso      1.000     Mn          0.98593   
         Mn3       1.0000    0.87430   0.70269   0.28919   Biso      1.000     Mn          0.985929  
         Mn4       1.0000    0.37430   0.79731   0.71081   Biso      1.000     Mn          0.985929  
         O1        1.0000    0.88090   0.41920   0.84098   Biso      1.000     O          -0.174195           
         O2        1.0000    0.83710   0.16440   0.87340   Biso      1.000     O          -0.562606           
         O3        1.0000    0.56330   0.50770   0.74170   Biso      1.000     O          -0.545997           
         O4        1.0000    0.47190   0.84500   0.53050   Biso      1.000     O          -0.573993           
         O5        1.0000    0.85790   0.27880   0.26830   Biso      1.000     O          -0.562359           
         O6        1.0000    0.61910   0.58080   0.34098   Biso      1.000     O          -0.174195           
         O7        1.0000    0.66290   0.83560   0.37340   Biso      1.000     O          -0.562605           
         O8        1.0000    0.93670   0.49230   0.24170   Biso      1.000     O          -0.545997           
         O9        1.0000    0.97190   0.65500   0.46950   Biso      1.000     O          -0.573993           
         O10       1.0000    0.35790   0.22120   0.73170   Biso      1.000     O          -0.562358           
         O11       1.0000    0.11910   0.91920   0.65902   Biso      1.000     O          -0.174195           
         O12       1.0000    0.16290   0.66440   0.62660   Biso      1.000     O          -0.562605           
         O13       1.0000    0.43670   0.00770   0.75830   Biso      1.000     O          -0.545997           
         O14       1.0000    0.52810   0.34500   0.96950   Biso      1.000     O          -0.573993           
         O15       1.0000    0.14210   0.77880   0.23170   Biso      1.000     O          -0.562359           
         O16       1.0000    0.38090   0.08080   0.15902   Biso      1.000     O          -0.174195           
         O17       1.0000    0.33710   0.33560   0.12660   Biso      1.000     O          -0.562606           
         O18       1.0000    0.06330   0.99230   0.25830   Biso      1.000     O          -0.545997           
         O19       1.0000    0.64210   0.72120   0.76830   Biso      1.000     O          -0.562358           
         O20       1.0000    0.02810   0.15500   0.03050   Biso      1.000     O          -0.573993 