
##########################################################################
#               Crystallographic Information Format file
#               Produced by PyCifRW module
#
#  This is a CIF file.  CIF has been adopted by the International
#  Union of Crystallography as the standard for data archiving and
#  transmission.
#
#  For information on this file format, follow the CIF links at
#  http://www.iucr.org
##########################################################################

data_image0

_cell_length_a                          10.6489
_cell_length_b                          10.8857
_cell_length_c                          11.0782
_cell_angle_alpha                       84.005
_cell_angle_beta                        89.826
_cell_angle_gamma                       63.605
_symmetry_space_group_name_H-M          'P 1'
_symmetry_int_tables_number             1
loop_
  _symmetry_equiv_pos_as_xyz
         'x, y, z' 
loop_
  _atom_site_label
  _atom_site_occupancy
  _atom_site_fract_x
  _atom_site_fract_y
  _atom_site_fract_z
  _atom_site_thermal_displace_type
  _atom_site_B_iso_or_equiv
  _atom_site_type_symbol
  _atom_site_charge
         C1        1.0000    0.08400   0.62890   0.18260   Biso      1.000     C          0.590477  
         C2        1.0000    0.38200   0.85140   0.35280   Biso      1.000     C          0.597463  
         C3        1.0000    0.09210   0.27880   0.21240   Biso      1.000     C          0.150605  
         C4        1.0000    0.10830   0.24630   0.33870   Biso      1.000     C          0.131499  
         C5        1.0000    0.11730   0.33540   0.41510   Biso      1.000     C          -0.164859           
         C6        1.0000    0.10850   0.45850   0.35990   Biso      1.000     C          -0.106294           
         C7        1.0000    0.09250   0.49150   0.23500   Biso      1.000     C          -0.017632           
         C8        1.0000    0.08380   0.40290   0.15810   Biso      1.000     C          -0.17244  
         C9        1.0000    0.31060   0.07630   0.70940   Biso      1.000     C          0.146378  
         C10       1.0000    0.29310   0.09550   0.83330   Biso      1.000     C          0.14444500000000002           
         C11       1.0000    0.58630   0.90490   0.35410   Biso      1.000     C          -0.175152           
         C12       1.0000    0.48700   0.14770   0.83310   Biso      1.000     C          -0.11588599999999999          
         C13       1.0000    0.50400   0.12870   0.70920   Biso      1.000     C          -0.020967           
         C14       1.0000    0.41370   0.09510   0.64590   Biso      1.000     C          -0.175049           
         C15       1.0000    0.61800   0.14860   0.64720   Biso      1.000     C          0.597521  
         C16       1.0000    0.90790   0.72120   0.78760   Biso      1.000     C          0.150581  
         C17       1.0000    0.89170   0.75370   0.66130   Biso      1.000     C          0.131475  
         C18       1.0000    0.88270   0.66460   0.58490   Biso      1.000     C          -0.16501500000000002          
         C19       1.0000    0.89150   0.54150   0.64010   Biso      1.000     C          -0.10645299999999999          
         C20       1.0000    0.90750   0.50850   0.76500   Biso      1.000     C          -0.017624           
         C21       1.0000    0.91620   0.59710   0.84190   Biso      1.000     C          -0.172457           
         C22       1.0000    0.38100   0.13270   0.89550   Biso      1.000     C          -0.167426           
         C23       1.0000    0.49600   0.87130   0.29080   Biso      1.000     C          -0.020765000000000002         
         C24       1.0000    0.91600   0.37110   0.81740   Biso      1.000     C          0.590675  
         C25       1.0000    0.61900   0.86730   0.10450   Biso      1.000     C          -0.16743  
         C26       1.0000    0.51300   0.85230   0.16690   Biso      1.000     C          -0.11568599999999998          
         C27       1.0000    0.70690   0.90450   0.16670   Biso      1.000     C          0.14451   
         C28       1.0000    0.68940   0.92370   0.29060   Biso      1.000     C          0.146393  
         Co1       1.0000    0.96140   0.87220   0.00024   Biso      1.000     Co          0.879365  
         Co2       1.0000    0.84380   0.02720   0.47758   Biso      1.000     Co          0.8328059999999999  
         Co3       1.0000    0.15620   0.97280   0.52242   Biso      1.000     Co          0.832673  
         Co4       1.0000    0.03860   0.12780   0.99976   Biso      1.000     Co          0.880131  
         Co5       1.0000    0.90280   0.11210   0.74555   Biso      1.000     Co          0.749646  
         Co6       1.0000    0.09720   0.88790   0.25445   Biso      1.000     Co          0.7485189999999999  
         H1        1.0000    0.92840   0.19120   0.52370   Biso      1.000     H          0.387841  
         H2        1.0000    0.63040   0.85290   0.02310   Biso      1.000     H          0.128906  
         H3        1.0000    0.42220   0.08550   0.56350   Biso      1.000     H          0.139237  
         H4        1.0000    0.07160   0.80880   0.47630   Biso      1.000     H          0.388034  
         H5        1.0000    0.20710   0.87200   0.07620   Biso      1.000     H          0.398357  
         H6        1.0000    0.87120   0.68680   0.50100   Biso      1.000     H          0.129705  
         H7        1.0000    0.36960   0.14710   0.97690   Biso      1.000     H          0.128881  
         H8        1.0000    0.88670   0.47860   0.59190   Biso      1.000     H          0.11698399999999999           
         H9        1.0000    0.45210   0.82900   0.12600   Biso      1.000     H          0.116051  
         H10       1.0000    0.12880   0.31320   0.49900   Biso      1.000     H          0.12972999999999998           
         H11       1.0000    0.57780   0.91450   0.43650   Biso      1.000     H          0.139264  
         H12       1.0000    0.11330   0.52140   0.40810   Biso      1.000     H          0.11698299999999999           
         H13       1.0000    0.92700   0.57440   0.92580   Biso      1.000     H          0.13923   
         H14       1.0000    0.07300   0.42560   0.07420   Biso      1.000     H          0.139248  
         H15       1.0000    0.79290   0.12800   0.92380   Biso      1.000     H          0.398333  
         H16       1.0000    0.54790   0.17100   0.87400   Biso      1.000     H          0.116024  
         N1        1.0000    0.81860   0.92720   0.13260   Biso      1.000     N          -0.261975           
         N2        1.0000    0.08700   0.16900   0.16570   Biso      1.000     N          -0.262835           
         N3        1.0000    0.86630   0.95960   0.23000   Biso      1.000     N          -0.04317  
         N4        1.0000    0.79120   0.95780   0.32580   Biso      1.000     N          -0.246038           
         N5        1.0000    0.88690   0.88070   0.63350   Biso      1.000     N          -0.23549699999999998          
         N6        1.0000    0.89990   0.92170   0.73920   Biso      1.000     N          -0.005232           
         N7        1.0000    0.11310   0.11930   0.36650   Biso      1.000     N          -0.23546599999999998          
         N8        1.0000    0.10010   0.07830   0.26080   Biso      1.000     N          -0.004886           
         N9        1.0000    0.13370   0.04040   0.77000   Biso      1.000     N          -0.043476999999999995         
         N10       1.0000    0.18140   0.07280   0.86740   Biso      1.000     N          -0.262025           
         N11       1.0000    0.20880   0.04220   0.67420   Biso      1.000     N          -0.246121           
         N12       1.0000    0.91300   0.83100   0.83430   Biso      1.000     N          -0.262586           
         O1        1.0000    0.03890   0.67150   0.07250   Biso      1.000     O          -0.555361           
         O2        1.0000    0.32000   0.80000   0.29530   Biso      1.000     O          -0.557091           
         O3        1.0000    0.88800   0.30690   0.74260   Biso      1.000     O          -0.49605699999999997          
         O4        1.0000    0.35500   0.88760   0.45860   Biso      1.000     O          -0.560148           
         O5        1.0000    0.05110   0.89550   0.42930   Biso      1.000     O          -0.7982600000000001           
         O6        1.0000    0.68000   0.20000   0.70470   Biso      1.000     O          -0.5564   
         O7        1.0000    0.64500   0.11240   0.54140   Biso      1.000     O          -0.559922           
         O8        1.0000    0.10590   0.91740   0.06950   Biso      1.000     O          -0.8166640000000001           
         O9        1.0000    0.94890   0.10450   0.57070   Biso      1.000     O          -0.7991060000000001           
         O10       1.0000    0.89410   0.08260   0.93050   Biso      1.000     O          -0.817283           
         O11       1.0000    0.11200   0.69310   0.25740   Biso      1.000     O          -0.495691           
         O12       1.0000    0.96110   0.32850   0.92750   Biso      1.000     O          -0.555545 