
##########################################################################
#               Crystallographic Information Format file
#               Produced by PyCifRW module
#
#  This is a CIF file.  CIF has been adopted by the International
#  Union of Crystallography as the standard for data archiving and
#  transmission.
#
#  For information on this file format, follow the CIF links at
#  http://www.iucr.org
##########################################################################

data_image0

_cell_length_a                          10.2541
_cell_length_b                          10.8657
_cell_length_c                          10.986
_cell_angle_alpha                       83.309
_cell_angle_beta                        91.74
_cell_angle_gamma                       61.657
_symmetry_space_group_name_H-M          'P 1'
_symmetry_int_tables_number             1
loop_
  _symmetry_equiv_pos_as_xyz
         'x, y, z' 
loop_
  _atom_site_label
  _atom_site_occupancy
  _atom_site_fract_x
  _atom_site_fract_y
  _atom_site_fract_z
  _atom_site_thermal_displace_type
  _atom_site_B_iso_or_equiv
  _atom_site_type_symbol
  _atom_site_charge
         C1        1.0000    0.09100   0.48870   0.24090   Biso      1.000     C          -0.022994           
         C2        1.0000    0.89710   0.73040   0.78320   Biso      1.000     C          0.151876  
         C3        1.0000    0.88300   0.76520   0.65570   Biso      1.000     C          0.131413  
         C4        1.0000    0.88200   0.67400   0.57580   Biso      1.000     C          -0.160469           
         C5        1.0000    0.50400   0.13240   0.70650   Biso      1.000     C          -0.013883000000000001         
         C6        1.0000    0.07700   0.62760   0.18990   Biso      1.000     C          0.598811  
         C7        1.0000    0.89600   0.54680   0.63100   Biso      1.000     C          -0.10983699999999999          
         C8        1.0000    0.08980   0.39740   0.16250   Biso      1.000     C          -0.172798           
         C9        1.0000    0.49700   0.15220   0.83090   Biso      1.000     C          -0.11107  
         C10       1.0000    0.39700   0.13060   0.89780   Biso      1.000     C          -0.159903           
         C11       1.0000    0.10400   0.45320   0.36900   Biso      1.000     C          -0.10981800000000001          
         C12       1.0000    0.90900   0.51130   0.75910   Biso      1.000     C          -0.022987           
         C13       1.0000    0.11800   0.32600   0.42420   Biso      1.000     C          -0.16045  
         C14       1.0000    0.60500   0.16700   0.63550   Biso      1.000     C          0.571101  
         C15       1.0000    0.11700   0.23480   0.34430   Biso      1.000     C          0.131421  
         C16       1.0000    0.39500   0.83300   0.36450   Biso      1.000     C          0.5711229999999999  
         C17       1.0000    0.91020   0.60260   0.83750   Biso      1.000     C          -0.172802           
         C18       1.0000    0.58100   0.91370   0.35180   Biso      1.000     C          -0.166129           
         C19       1.0000    0.49600   0.86760   0.29350   Biso      1.000     C          -0.013869999999999999         
         C20       1.0000    0.31100   0.08290   0.83980   Biso      1.000     C          0.150448  
         C21       1.0000    0.50300   0.84780   0.16910   Biso      1.000     C          -0.111034           
         C22       1.0000    0.92300   0.37240   0.81010   Biso      1.000     C          0.598816  
         C23       1.0000    0.60300   0.86940   0.10220   Biso      1.000     C          -0.159904           
         C24       1.0000    0.68900   0.91710   0.16020   Biso      1.000     C          0.150463  
         C25       1.0000    0.67900   0.93870   0.28350   Biso      1.000     C          0.149029  
         C26       1.0000    0.32100   0.06130   0.71650   Biso      1.000     C          0.14902   
         C27       1.0000    0.10290   0.26960   0.21680   Biso      1.000     C          0.151875  
         C28       1.0000    0.41900   0.08630   0.64820   Biso      1.000     C          -0.166114           
         Co1       1.0000    0.90180   0.11690   0.74321   Biso      1.000     Co          0.779841  
         Co2       1.0000    0.09820   0.88310   0.25679   Biso      1.000     Co          0.779884  
         Co3       1.0000    0.04650   0.12330   0.00208   Biso      1.000     Co          0.856927  
         Co4       1.0000    0.83400   0.04260   0.46798   Biso      1.000     Co          0.8339190000000001  
         Co5       1.0000    0.95350   0.87670   0.99792   Biso      1.000     Co          0.8568319999999999  
         Co6       1.0000    0.16600   0.95740   0.53202   Biso      1.000     Co          0.834033  
         H1        1.0000    0.87310   0.69750   0.49070   Biso      1.000     H          0.13106600000000002           
         H2        1.0000    0.56030   0.17970   0.86750   Biso      1.000     H          0.116154  
         H3        1.0000    0.38660   0.14740   0.97900   Biso      1.000     H          0.131306  
         H4        1.0000    0.89530   0.48300   0.58140   Biso      1.000     H          0.11579400000000001           
         H5        1.0000    0.91920   0.57910   0.92260   Biso      1.000     H          0.139782  
         H6        1.0000    0.42730   0.07230   0.56620   Biso      1.000     H          0.137984  
         H7        1.0000    0.11980   0.79630   0.47500   Biso      1.000     H          0.381264  
         H8        1.0000    0.78560   0.12980   0.94120   Biso      1.000     H          0.39226700000000003           
         H9        1.0000    0.88020   0.20370   0.52500   Biso      1.000     H          0.381264  
         H10       1.0000    0.21440   0.87020   0.05880   Biso      1.000     H          0.392253  
         H11       1.0000    0.61340   0.85260   0.02100   Biso      1.000     H          0.13131099999999998           
         H12       1.0000    0.43970   0.82030   0.13250   Biso      1.000     H          0.116158  
         H13       1.0000    0.57270   0.92770   0.43380   Biso      1.000     H          0.137989  
         H14       1.0000    0.12690   0.30250   0.50930   Biso      1.000     H          0.13106800000000002           
         H15       1.0000    0.10470   0.51700   0.41860   Biso      1.000     H          0.11579600000000001           
         H16       1.0000    0.08080   0.42090   0.07740   Biso      1.000     H          0.139784  
         N1        1.0000    0.89430   0.84060   0.83180   Biso      1.000     N          -0.254664           
         N2        1.0000    0.20400   0.05320   0.87810   Biso      1.000     N          -0.272269           
         N3        1.0000    0.15200   0.01530   0.78430   Biso      1.000     N          -0.060009           
         N4        1.0000    0.22000   0.02160   0.68420   Biso      1.000     N          -0.230706           
         N5        1.0000    0.78000   0.97840   0.31580   Biso      1.000     N          -0.230721           
         N6        1.0000    0.84800   0.98470   0.21570   Biso      1.000     N          -0.059989999999999995         
         N7        1.0000    0.79600   0.94680   0.12190   Biso      1.000     N          -0.272241           
         N8        1.0000    0.10570   0.15940   0.16820   Biso      1.000     N          -0.254684           
         N9        1.0000    0.12040   0.06530   0.26420   Biso      1.000     N          -0.027393999999999998         
         N10       1.0000    0.12770   0.10530   0.37330   Biso      1.000     N          -0.22002800000000003          
         N11       1.0000    0.87960   0.93470   0.73580   Biso      1.000     N          -0.027391000000000002         
         N12       1.0000    0.87230   0.89470   0.62670   Biso      1.000     N          -0.22001700000000002          
         O1        1.0000    0.67400   0.22500   0.68560   Biso      1.000     O          -0.566242           
         O2        1.0000    0.62600   0.13740   0.52450   Biso      1.000     O          -0.557742           
         O3        1.0000    0.94600   0.10920   0.56920   Biso      1.000     O          -0.78869  
         O4        1.0000    0.88880   0.09200   0.92520   Biso      1.000     O          -0.816773           
         O5        1.0000    0.08600   0.69880   0.26540   Biso      1.000     O          -0.489508           
         O6        1.0000    0.03700   0.66960   0.07380   Biso      1.000     O          -0.567958           
         O7        1.0000    0.32600   0.77500   0.31440   Biso      1.000     O          -0.5663729999999999           
         O8        1.0000    0.37400   0.86260   0.47550   Biso      1.000     O          -0.557756           
         O9        1.0000    0.05400   0.89080   0.43080   Biso      1.000     O          -0.788573           
         O10       1.0000    0.11120   0.90800   0.07480   Biso      1.000     O          -0.816787           
         O11       1.0000    0.96300   0.33040   0.92620   Biso      1.000     O          -0.567975           
         O12       1.0000    0.91400   0.30120   0.73460   Biso      1.000     O          -0.48951999999999996 