
##########################################################################
#               Crystallographic Information Format file
#               Produced by PyCifRW module
#
#  This is a CIF file.  CIF has been adopted by the International
#  Union of Crystallography as the standard for data archiving and
#  transmission.
#
#  For information on this file format, follow the CIF links at
#  http://www.iucr.org
##########################################################################

data_image0

_cell_length_a                          10.534
_cell_length_b                          11.3
_cell_length_c                          12.661
_cell_angle_alpha                       101.901
_cell_angle_beta                        108.73
_cell_angle_gamma                       99.044
_symmetry_space_group_name_H-M          'P 1'
_symmetry_int_tables_number             1
loop_
  _symmetry_equiv_pos_as_xyz
         'x, y, z' 
loop_
  _atom_site_label
  _atom_site_occupancy
  _atom_site_fract_x
  _atom_site_fract_y
  _atom_site_fract_z
  _atom_site_thermal_displace_type
  _atom_site_B_iso_or_equiv
  _atom_site_type_symbol
  _atom_site_charge
         C1        1.0000    0.00850   0.08530   0.59720   Biso      1.000     C          -0.219234           
         C2        1.0000    0.20620   0.46890   0.42700   Biso      1.000     C          0.648026  
         C3        1.0000    0.44070   0.53680   0.57890   Biso      1.000     C          -0.211111           
         C4        1.0000    0.35670   0.48560   0.46290   Biso      1.000     C          -0.154425           
         C5        1.0000    0.41800   0.44890   0.38230   Biso      1.000     C          0.323285  
         C6        1.0000    0.95860   0.24630   0.49290   Biso      1.000     C          0.668247  
         C7        1.0000    0.54590   0.90780   0.94070   Biso      1.000     C          -0.02454  
         C8        1.0000    0.97710   0.11730   0.49420   Biso      1.000     C          -0.159954           
         C9        1.0000    0.96810   0.02990   0.39370   Biso      1.000     C          0.316335  
         C10       1.0000    0.69550   0.22890   0.14970   Biso      1.000     C          0.616445  
         C11       1.0000    0.45410   0.09220   0.05930   Biso      1.000     C          -0.02454  
         C12       1.0000    0.59300   0.11060   0.07320   Biso      1.000     C          -0.206822           
         C13       1.0000    0.63750   0.01800   0.01250   Biso      1.000     C          0.269518  
         C14       1.0000    0.79380   0.53110   0.57300   Biso      1.000     C          0.648026  
         C15       1.0000    0.55930   0.46320   0.42110   Biso      1.000     C          -0.211109           
         C16       1.0000    0.64330   0.51440   0.53710   Biso      1.000     C          -0.154426           
         C17       1.0000    0.58200   0.55110   0.61770   Biso      1.000     C          0.323287  
         C18       1.0000    0.04140   0.75370   0.50710   Biso      1.000     C          0.668247  
         C19       1.0000    0.30450   0.77110   0.85030   Biso      1.000     C          0.616445  
         C20       1.0000    0.36250   0.98200   0.98750   Biso      1.000     C          0.269519  
         C21       1.0000    0.40700   0.88940   0.92680   Biso      1.000     C          -0.206822           
         C22       1.0000    0.02290   0.88270   0.50580   Biso      1.000     C          -0.159954           
         C23       1.0000    0.99150   0.91470   0.40280   Biso      1.000     C          -0.219232           
         C24       1.0000    0.03190   0.97010   0.60630   Biso      1.000     C          0.316336  
         H1        1.0000    0.40030   0.56230   0.63230   Biso      1.000     H          0.138077  
         H2        1.0000    0.01420   0.14350   0.66330   Biso      1.000     H          0.142642  
         H3        1.0000    0.18590   0.91330   0.94270   Biso      1.000     H          0.399233  
         H4        1.0000    0.26190   0.39420   0.25520   Biso      1.000     H          0.400218  
         H5        1.0000    0.59970   0.43770   0.36770   Biso      1.000     H          0.138077  
         H6        1.0000    0.98580   0.85650   0.33670   Biso      1.000     H          0.142642  
         H7        1.0000    0.81410   0.08670   0.05730   Biso      1.000     H          0.399233  
         H8        1.0000    0.73810   0.60580   0.74480   Biso      1.000     H          0.400218  
         H9        1.0000    0.07390   0.87750   0.70660   Biso      1.000     H          0.394973  
         H10       1.0000    0.92610   0.12250   0.29340   Biso      1.000     H          0.394973  
         La1       1.0000    0.89680   0.45560   0.31768   Biso      1.000     La          1.938196  
         La2       1.0000    0.10320   0.54440   0.68232   Biso      1.000     La          1.938196  
         O1        1.0000    0.18560   0.74850   0.85110   Biso      1.000     O          -0.619422           
         O2        1.0000    0.34410   0.39880   0.26760   Biso      1.000     O          -0.490067           
         O3        1.0000    0.13300   0.43130   0.32030   Biso      1.000     O          -0.604374           
         O4        1.0000    0.15070   0.49350   0.50110   Biso      1.000     O          -0.686116           
         O5        1.0000    0.93760   0.05170   0.28850   Biso      1.000     O          -0.495846           
         O6        1.0000    0.91870   0.26880   0.39500   Biso      1.000     O          -0.628029           
         O7        1.0000    0.98400   0.32280   0.58750   Biso      1.000     O          -0.657477           
         O8        1.0000    0.34450   0.69410   0.78650   Biso      1.000     O          -0.633669           
         O9        1.0000    0.76230   0.01960   0.01550   Biso      1.000     O          -0.464115           
         O10       1.0000    0.81440   0.25150   0.14890   Biso      1.000     O          -0.619422           
         O11       1.0000    0.65590   0.60120   0.73240   Biso      1.000     O          -0.490067           
         O12       1.0000    0.86700   0.56870   0.67970   Biso      1.000     O          -0.604374           
         O13       1.0000    0.84930   0.50650   0.49890   Biso      1.000     O          -0.686116           
         O14       1.0000    0.06240   0.94830   0.71150   Biso      1.000     O          -0.495846           
         O15       1.0000    0.08130   0.73120   0.60500   Biso      1.000     O          -0.628029           
         O16       1.0000    0.01600   0.67720   0.41250   Biso      1.000     O          -0.657477           
         O17       1.0000    0.65550   0.30590   0.21350   Biso      1.000     O          -0.633669           
         O18       1.0000    0.23770   0.98040   0.98450   Biso      1.000     O          -0.464115 