
##########################################################################
#               Crystallographic Information Format file
#               Produced by PyCifRW module
#
#  This is a CIF file.  CIF has been adopted by the International
#  Union of Crystallography as the standard for data archiving and
#  transmission.
#
#  For information on this file format, follow the CIF links at
#  http://www.iucr.org
##########################################################################

data_image0

_cell_length_a                          10.5152
_cell_length_b                          11.1058
_cell_length_c                          12.7396
_cell_angle_alpha                       103.891
_cell_angle_beta                        109.709
_cell_angle_gamma                       96.684
_symmetry_space_group_name_H-M          'P 1'
_symmetry_int_tables_number             1
loop_
  _symmetry_equiv_pos_as_xyz
         'x, y, z' 
loop_
  _atom_site_label
  _atom_site_occupancy
  _atom_site_fract_x
  _atom_site_fract_y
  _atom_site_fract_z
  _atom_site_thermal_displace_type
  _atom_site_B_iso_or_equiv
  _atom_site_type_symbol
  _atom_site_charge
         C1        1.0000    0.97820   0.12030   0.49350   Biso      1.000     C          -0.158899           
         C2        1.0000    0.79420   0.53220   0.56440   Biso      1.000     C          0.6810649999999999  
         C3        1.0000    0.60000   0.10900   0.07340   Biso      1.000     C          -0.147532           
         C4        1.0000    0.46390   0.09730   0.06790   Biso      1.000     C          -0.21226  
         C5        1.0000    0.70430   0.22780   0.15220   Biso      1.000     C          0.612306  
         C6        1.0000    0.97580   0.02930   0.39460   Biso      1.000     C          0.31569400000000003           
         C7        1.0000    0.00250   0.08830   0.59710   Biso      1.000     C          -0.218137           
         C8        1.0000    0.96030   0.25190   0.49230   Biso      1.000     C          0.687293  
         C9        1.0000    0.41340   0.44850   0.38240   Biso      1.000     C          0.319749  
         C10       1.0000    0.35680   0.48440   0.46770   Biso      1.000     C          -0.150894           
         C11       1.0000    0.44540   0.53570   0.58400   Biso      1.000     C          -0.211173           
         C12       1.0000    0.20580   0.46780   0.43560   Biso      1.000     C          0.6810649999999999  
         C13       1.0000    0.36400   0.98880   0.99520   Biso      1.000     C          0.30653800000000003           
         C14       1.0000    0.40000   0.89100   0.92660   Biso      1.000     C          -0.147533           
         C15       1.0000    0.53610   0.90270   0.93210   Biso      1.000     C          -0.212259           
         C16       1.0000    0.29570   0.77220   0.84780   Biso      1.000     C          0.612306  
         C17       1.0000    0.55460   0.46430   0.41600   Biso      1.000     C          -0.211175           
         C18       1.0000    0.64320   0.51560   0.53230   Biso      1.000     C          -0.150893           
         C19       1.0000    0.63600   0.01120   0.00480   Biso      1.000     C          0.306537  
         C20       1.0000    0.03970   0.74810   0.50770   Biso      1.000     C          0.687293  
         C21       1.0000    0.99750   0.91170   0.40290   Biso      1.000     C          -0.218133           
         C22       1.0000    0.02180   0.87970   0.50650   Biso      1.000     C          -0.1589   
         C23       1.0000    0.02420   0.97070   0.60540   Biso      1.000     C          0.315698  
         C24       1.0000    0.58660   0.55150   0.61760   Biso      1.000     C          0.319749  
         H1        1.0000    0.05970   0.87640   0.70500   Biso      1.000     H          0.398325  
         H2        1.0000    0.74750   0.60610   0.74320   Biso      1.000     H          0.403498  
         H3        1.0000    0.81540   0.08090   0.04570   Biso      1.000     H          0.403787  
         H4        1.0000    0.99580   0.85140   0.33740   Biso      1.000     H          0.145796  
         H5        1.0000    0.59160   0.44000   0.35930   Biso      1.000     H          0.141297  
         H6        1.0000    0.94030   0.12360   0.29500   Biso      1.000     H          0.398325  
         H7        1.0000    0.44010   0.16280   0.11330   Biso      1.000     H          0.154407  
         H8        1.0000    0.18460   0.91910   0.95430   Biso      1.000     H          0.403787  
         H9        1.0000    0.00420   0.14860   0.66260   Biso      1.000     H          0.145797  
         H10       1.0000    0.40840   0.56000   0.64070   Biso      1.000     H          0.141297  
         H11       1.0000    0.55990   0.83720   0.88670   Biso      1.000     H          0.154407  
         H12       1.0000    0.25250   0.39390   0.25680   Biso      1.000     H          0.403498  
         O1        1.0000    0.33430   0.39740   0.26690   Biso      1.000     O          -0.491442           
         O2        1.0000    0.76380   0.01270   0.00290   Biso      1.000     O          -0.49416000000000004          
         O3        1.0000    0.17590   0.75570   0.84940   Biso      1.000     O          -0.663133           
         O4        1.0000    0.12770   0.42850   0.32810   Biso      1.000     O          -0.651721           
         O5        1.0000    0.15650   0.49260   0.51280   Biso      1.000     O          -0.737333           
         O6        1.0000    0.95220   0.05110   0.29000   Biso      1.000     O          -0.495204           
         O7        1.0000    0.92590   0.27330   0.39450   Biso      1.000     O          -0.649516           
         O8        1.0000    0.98290   0.33210   0.58780   Biso      1.000     O          -0.706854           
         O9        1.0000    0.66950   0.31020   0.21740   Biso      1.000     O          -0.663788           
         O10       1.0000    0.23620   0.98730   0.99710   Biso      1.000     O          -0.49416000000000004          
         O11       1.0000    0.66570   0.60260   0.73310   Biso      1.000     O          -0.491442           
         O12       1.0000    0.87230   0.57150   0.67190   Biso      1.000     O          -0.651721           
         O13       1.0000    0.84350   0.50740   0.48720   Biso      1.000     O          -0.737333           
         O14       1.0000    0.04780   0.94890   0.71000   Biso      1.000     O          -0.495204           
         O15       1.0000    0.07410   0.72670   0.60550   Biso      1.000     O          -0.649516           
         O16       1.0000    0.01710   0.66790   0.41220   Biso      1.000     O          -0.706854           
         O17       1.0000    0.33050   0.68980   0.78260   Biso      1.000     O          -0.663788           
         O18       1.0000    0.82410   0.24430   0.15060   Biso      1.000     O          -0.663133           
         Sm1       1.0000    0.10207   0.54777   0.68155   Biso      1.000     Sm          2.082288  
         Sm2       1.0000    0.89793   0.45223   0.31845   Biso      1.000     Sm          2.082288 