
##########################################################################
#               Crystallographic Information Format file
#               Produced by PyCifRW module
#
#  This is a CIF file.  CIF has been adopted by the International
#  Union of Crystallography as the standard for data archiving and
#  transmission.
#
#  For information on this file format, follow the CIF links at
#  http://www.iucr.org
##########################################################################

data_image0

_cell_length_a                          10.4195
_cell_length_b                          11.1743
_cell_length_c                          12.569
_cell_angle_alpha                       102.198
_cell_angle_beta                        108.537
_cell_angle_gamma                       98.944
_symmetry_space_group_name_H-M          'P 1'
_symmetry_int_tables_number             1
loop_
  _symmetry_equiv_pos_as_xyz
         'x, y, z' 
loop_
  _atom_site_label
  _atom_site_occupancy
  _atom_site_fract_x
  _atom_site_fract_y
  _atom_site_fract_z
  _atom_site_thermal_displace_type
  _atom_site_B_iso_or_equiv
  _atom_site_type_symbol
  _atom_site_charge
         C1        1.0000    0.47080   0.53150   0.39510   Biso      1.000     C          0.314511  
         C2        1.0000    0.79990   0.26920   0.84660   Biso      1.000     C          0.617742  
         C3        1.0000    0.90420   0.38900   0.92560   Biso      1.000     C          -0.127281           
         C4        1.0000    0.04350   0.40690   0.93640   Biso      1.000     C          0.300237  
         C5        1.0000    0.86120   0.48270   0.98900   Biso      1.000     C          0.02862   
         C6        1.0000    0.91760   0.94790   0.38160   Biso      1.000     C          0.323333  
         C7        1.0000    0.50370   0.58520   0.59840   Biso      1.000     C          -0.210704           
         C8        1.0000    0.47510   0.61830   0.49430   Biso      1.000     C          -0.155893           
         C9        1.0000    0.45440   0.74860   0.49390   Biso      1.000     C          0.6803899999999999  
         C10       1.0000    0.06050   0.96360   0.41920   Biso      1.000     C          -0.212365           
         C11       1.0000    0.08240   0.05210   0.61840   Biso      1.000     C          0.323341  
         C12       1.0000    0.14430   0.01570   0.53620   Biso      1.000     C          -0.150029           
         C13       1.0000    0.29740   0.03380   0.57290   Biso      1.000     C          0.659636  
         C14       1.0000    0.20010   0.73080   0.15340   Biso      1.000     C          0.617621  
         C15       1.0000    0.09580   0.61100   0.07440   Biso      1.000     C          -0.127049           
         C16       1.0000    0.95650   0.59310   0.06360   Biso      1.000     C          0.300246  
         C17       1.0000    0.13880   0.51730   0.01100   Biso      1.000     C          0.029474  
         C18       1.0000    0.52920   0.46850   0.60490   Biso      1.000     C          0.314641  
         C19       1.0000    0.49630   0.41480   0.40160   Biso      1.000     C          -0.21078200000000002          
         C20       1.0000    0.52490   0.38170   0.50570   Biso      1.000     C          -0.155897           
         C21       1.0000    0.54560   0.25140   0.50610   Biso      1.000     C          0.6803739999999999  
         C22       1.0000    0.93950   0.03640   0.58080   Biso      1.000     C          -0.21223499999999998          
         C23       1.0000    0.70260   0.96620   0.42710   Biso      1.000     C          0.659628  
         C24       1.0000    0.85570   0.98430   0.46380   Biso      1.000     C          -0.150062           
         H1        1.0000    0.89860   0.06140   0.63490   Biso      1.000     H          0.14064400000000002           
         H2        1.0000    0.50570   0.64230   0.66490   Biso      1.000     H          0.14856   
         H3        1.0000    0.76090   0.89780   0.25260   Biso      1.000     H          0.400541  
         H4        1.0000    0.43130   0.62640   0.29310   Biso      1.000     H          0.400267  
         H5        1.0000    0.10140   0.93860   0.36510   Biso      1.000     H          0.14059100000000002           
         H6        1.0000    0.49430   0.35770   0.33510   Biso      1.000     H          0.148523  
         H7        1.0000    0.23910   0.10220   0.74740   Biso      1.000     H          0.40052600000000005           
         H8        1.0000    0.56870   0.37360   0.70690   Biso      1.000     H          0.400302  
         Nd1       1.0000    0.39829   0.95560   0.31927   Biso      1.000     Nd          2.081196  
         Nd2       1.0000    0.60171   0.04440   0.68073   Biso      1.000     Nd          2.081113  
         O1        1.0000    0.84300   0.89720   0.26560   Biso      1.000     O          -0.47457  
         O2        1.0000    0.62900   0.92810   0.31900   Biso      1.000     O          -0.6256619999999999           
         O3        1.0000    0.64720   0.99090   0.50270   Biso      1.000     O          -0.7423609999999999           
         O4        1.0000    0.67880   0.24730   0.84630   Biso      1.000     O          -0.6314850000000001           
         O5        1.0000    0.44350   0.55500   0.28800   Biso      1.000     O          -0.49823999999999996          
         O6        1.0000    0.41550   0.77120   0.39570   Biso      1.000     O          -0.6398010000000001           
         O7        1.0000    0.47770   0.82600   0.59030   Biso      1.000     O          -0.701521           
         O8        1.0000    0.83930   0.19080   0.78270   Biso      1.000     O          -0.640079           
         O9        1.0000    0.89910   0.67590   0.11780   Biso      1.000     O          -0.28522800000000004          
         O10       1.0000    0.15700   0.10280   0.73440   Biso      1.000     O          -0.474326           
         O11       1.0000    0.37100   0.07190   0.68100   Biso      1.000     O          -0.6256   
         O12       1.0000    0.35280   0.00910   0.49730   Biso      1.000     O          -0.742425           
         O13       1.0000    0.32120   0.75270   0.15370   Biso      1.000     O          -0.631232           
         O14       1.0000    0.55650   0.44500   0.71200   Biso      1.000     O          -0.498245           
         O15       1.0000    0.58450   0.22880   0.60430   Biso      1.000     O          -0.639672           
         O16       1.0000    0.52230   0.17400   0.40970   Biso      1.000     O          -0.701608           
         O17       1.0000    0.16070   0.80920   0.21730   Biso      1.000     O          -0.64002  
         O18       1.0000    0.10090   0.32410   0.88220   Biso      1.000     O          -0.287688 