
##########################################################################
#               Crystallographic Information Format file
#               Produced by PyCifRW module
#
#  This is a CIF file.  CIF has been adopted by the International
#  Union of Crystallography as the standard for data archiving and
#  transmission.
#
#  For information on this file format, follow the CIF links at
#  http://www.iucr.org
##########################################################################

data_image0

_cell_length_a                          10.434
_cell_length_b                          11.163
_cell_length_c                          12.422
_cell_angle_alpha                       102.676
_cell_angle_beta                        106.313
_cell_angle_gamma                       99.415
_symmetry_space_group_name_H-M          'P 1'
_symmetry_int_tables_number             1
loop_
  _symmetry_equiv_pos_as_xyz
         'x, y, z' 
loop_
  _atom_site_label
  _atom_site_occupancy
  _atom_site_fract_x
  _atom_site_fract_y
  _atom_site_fract_z
  _atom_site_thermal_displace_type
  _atom_site_B_iso_or_equiv
  _atom_site_type_symbol
  _atom_site_charge
         C1        1.0000    0.47130   0.11690   0.99350   Biso      1.000     C          -0.085851           
         C2        1.0000    0.85680   0.48120   0.96050   Biso      1.000     C          -0.081011           
         C3        1.0000    0.70530   0.46140   0.92200   Biso      1.000     C          0.629191  
         C4        1.0000    0.50650   0.08750   0.10070   Biso      1.000     C          -0.141783           
         C5        1.0000    0.90470   0.88860   0.42770   Biso      1.000     C          -0.124599           
         C6        1.0000    0.93480   0.53180   0.07910   Biso      1.000     C          -0.135034           
         C7        1.0000    0.04300   0.90050   0.44280   Biso      1.000     C          0.285748  
         C8        1.0000    0.92570   0.45060   0.88130   Biso      1.000     C          0.335886  
         C9        1.0000    0.85930   0.98850   0.48510   Biso      1.000     C          0.046008999999999994          
         C10       1.0000    0.53420   0.97250   0.10770   Biso      1.000     C          0.340473  
         C11       1.0000    0.49350   0.91250   0.89930   Biso      1.000     C          -0.14178  
         C12       1.0000    0.55590   0.75640   0.00820   Biso      1.000     C          0.639566  
         C13       1.0000    0.19800   0.23010   0.64560   Biso      1.000     C          0.6088979999999999  
         C14       1.0000    0.14320   0.51880   0.03950   Biso      1.000     C          -0.081015           
         C15       1.0000    0.29470   0.53860   0.07800   Biso      1.000     C          0.629192  
         C16       1.0000    0.52870   0.88310   0.00650   Biso      1.000     C          -0.085854           
         C17       1.0000    0.09530   0.11140   0.57230   Biso      1.000     C          -0.124598           
         C18       1.0000    0.06520   0.46820   0.92090   Biso      1.000     C          -0.135022           
         C19       1.0000    0.95700   0.09950   0.55720   Biso      1.000     C          0.28575   
         C20       1.0000    0.07430   0.54940   0.11870   Biso      1.000     C          0.335899  
         C21       1.0000    0.14070   0.01150   0.51490   Biso      1.000     C          0.046008999999999994          
         C22       1.0000    0.46580   0.02750   0.89230   Biso      1.000     C          0.34047   
         C23       1.0000    0.80200   0.76990   0.35440   Biso      1.000     C          0.608897  
         C24       1.0000    0.44410   0.24360   0.99180   Biso      1.000     C          0.639566  
         H1        1.0000    0.51110   0.14680   0.16820   Biso      1.000     H          0.15301800000000002           
         H2        1.0000    0.89000   0.55420   0.13270   Biso      1.000     H          0.1407    
         H3        1.0000    0.48890   0.85320   0.83180   Biso      1.000     H          0.15301800000000002           
         H4        1.0000    0.11000   0.44580   0.86730   Biso      1.000     H          0.140699  
         La1       1.0000    0.40366   0.45694   0.81635   Biso      1.000     La          1.935893  
         La2       1.0000    0.59634   0.54306   0.18365   Biso      1.000     La          1.9358950000000001  
         O1        1.0000    0.64430   0.48130   0.99770   Biso      1.000     O          -0.701163           
         O2        1.0000    0.43130   0.04730   0.78380   Biso      1.000     O          -0.309481           
         O3        1.0000    0.83960   0.68420   0.29200   Biso      1.000     O          -0.620809           
         O4        1.0000    0.67810   0.75400   0.35180   Biso      1.000     O          -0.578403           
         O5        1.0000    0.40360   0.26650   0.89240   Biso      1.000     O          -0.578486           
         O6        1.0000    0.46120   0.32290   0.08760   Biso      1.000     O          -0.660313           
         O7        1.0000    0.85740   0.40220   0.76350   Biso      1.000     O          -0.28923899999999997          
         O8        1.0000    0.63800   0.42370   0.81430   Biso      1.000     O          -0.537451           
         O9        1.0000    0.89910   0.19060   0.60350   Biso      1.000     O          -0.27176500000000003          
         O10       1.0000    0.35570   0.51870   0.00230   Biso      1.000     O          -0.7011649999999999           
         O11       1.0000    0.56870   0.95270   0.21620   Biso      1.000     O          -0.30949  
         O12       1.0000    0.16040   0.31580   0.70800   Biso      1.000     O          -0.620809           
         O13       1.0000    0.32190   0.24600   0.64820   Biso      1.000     O          -0.5784050000000001           
         O14       1.0000    0.59640   0.73350   0.10760   Biso      1.000     O          -0.578485           
         O15       1.0000    0.53880   0.67710   0.91240   Biso      1.000     O          -0.660313           
         O16       1.0000    0.14260   0.59780   0.23650   Biso      1.000     O          -0.28926199999999996          
         O17       1.0000    0.36200   0.57630   0.18570   Biso      1.000     O          -0.537449           
         O18       1.0000    0.10090   0.80940   0.39650   Biso      1.000     O          -0.271744 