
##########################################################################
#               Crystallographic Information Format file
#               Produced by PyCifRW module
#
#  This is a CIF file.  CIF has been adopted by the International
#  Union of Crystallography as the standard for data archiving and
#  transmission.
#
#  For information on this file format, follow the CIF links at
#  http://www.iucr.org
##########################################################################

data_image0

_cell_length_a                          10.5226
_cell_length_b                          11.0545
_cell_length_c                          12.7711
_cell_angle_alpha                       103.826
_cell_angle_beta                        110.024
_cell_angle_gamma                       96.602
_symmetry_space_group_name_H-M          'P 1'
_symmetry_int_tables_number             1
loop_
  _symmetry_equiv_pos_as_xyz
         'x, y, z' 
loop_
  _atom_site_label
  _atom_site_occupancy
  _atom_site_fract_x
  _atom_site_fract_y
  _atom_site_fract_z
  _atom_site_thermal_displace_type
  _atom_site_B_iso_or_equiv
  _atom_site_type_symbol
  _atom_site_charge
         C1        1.0000    0.97820   0.12120   0.49340   Biso      1.000     C          -0.16237100000000002          
         C2        1.0000    0.79370   0.53130   0.56110   Biso      1.000     C          0.678348  
         C3        1.0000    0.55250   0.46480   0.41490   Biso      1.000     C          -0.211612           
         C4        1.0000    0.64270   0.51540   0.53070   Biso      1.000     C          -0.14851199999999998          
         C5        1.0000    0.58900   0.55080   0.61750   Biso      1.000     C          0.318642  
         C6        1.0000    0.03860   0.74640   0.50720   Biso      1.000     C          0.6913279999999999  
         C7        1.0000    0.99870   0.91160   0.40420   Biso      1.000     C          -0.221322           
         C8        1.0000    0.02180   0.87880   0.50660   Biso      1.000     C          -0.16237100000000002          
         C9        1.0000    0.02350   0.97010   0.60520   Biso      1.000     C          0.319021  
         C10       1.0000    0.46450   0.09720   0.06810   Biso      1.000     C          -0.211085           
         C11       1.0000    0.70470   0.22840   0.15330   Biso      1.000     C          0.610939  
         C12       1.0000    0.97650   0.02990   0.39480   Biso      1.000     C          0.319022  
         C13       1.0000    0.00130   0.08840   0.59580   Biso      1.000     C          -0.22132  
         C14       1.0000    0.96140   0.25360   0.49280   Biso      1.000     C          0.691327  
         C15       1.0000    0.41100   0.44920   0.38250   Biso      1.000     C          0.31864699999999996           
         C16       1.0000    0.35730   0.48460   0.46930   Biso      1.000     C          -0.148515           
         C17       1.0000    0.44750   0.53520   0.58510   Biso      1.000     C          -0.21160500000000002          
         C18       1.0000    0.20630   0.46870   0.43890   Biso      1.000     C          0.678348  
         C19       1.0000    0.36410   0.98840   0.99510   Biso      1.000     C          0.305148  
         C20       1.0000    0.40010   0.89090   0.92640   Biso      1.000     C          -0.145983           
         C21       1.0000    0.53550   0.90280   0.93190   Biso      1.000     C          -0.21108600000000002          
         C22       1.0000    0.29530   0.77160   0.84670   Biso      1.000     C          0.610938  
         C23       1.0000    0.63590   0.01160   0.00490   Biso      1.000     C          0.305148  
         C24       1.0000    0.59990   0.10910   0.07360   Biso      1.000     C          -0.145984           
         Gd1       1.0000    0.89696   0.45217   0.31832   Biso      1.000     Gd          2.051225  
         Gd2       1.0000    0.10304   0.54783   0.68168   Biso      1.000     Gd          2.051225  
         H1        1.0000    0.41180   0.55930   0.64240   Biso      1.000     H          0.145082  
         H2        1.0000    0.55900   0.83720   0.88620   Biso      1.000     H          0.153915  
         H3        1.0000    0.05690   0.87430   0.70320   Biso      1.000     H          0.40013899999999997           
         H4        1.0000    0.81600   0.08350   0.04670   Biso      1.000     H          0.402418  
         H5        1.0000    0.99820   0.85130   0.33930   Biso      1.000     H          0.144242  
         H6        1.0000    0.58820   0.44070   0.35760   Biso      1.000     H          0.145083  
         H7        1.0000    0.75170   0.60460   0.74220   Biso      1.000     H          0.403543  
         H8        1.0000    0.94310   0.12570   0.29680   Biso      1.000     H          0.40013899999999997           
         H9        1.0000    0.24830   0.39540   0.25780   Biso      1.000     H          0.403543  
         H10       1.0000    0.18400   0.91650   0.95330   Biso      1.000     H          0.402418  
         H11       1.0000    0.00180   0.14870   0.66070   Biso      1.000     H          0.144242  
         H12       1.0000    0.44100   0.16280   0.11380   Biso      1.000     H          0.153915  
         O1        1.0000    0.98340   0.33370   0.58760   Biso      1.000     O          -0.696705           
         O2        1.0000    0.17550   0.75440   0.84840   Biso      1.000     O          -0.657855           
         O3        1.0000    0.32980   0.39850   0.26700   Biso      1.000     O          -0.493133           
         O4        1.0000    0.12560   0.43000   0.33170   Biso      1.000     O          -0.648486           
         O5        1.0000    0.15900   0.49370   0.51760   Biso      1.000     O          -0.729291           
         O6        1.0000    0.95500   0.05280   0.29170   Biso      1.000     O          -0.49449399999999993          
         O7        1.0000    0.92690   0.27450   0.39430   Biso      1.000     O          -0.651763           
         O8        1.0000    0.76490   0.01480   0.00360   Biso      1.000     O          -0.496777           
         O9        1.0000    0.04500   0.94720   0.70830   Biso      1.000     O          -0.494493           
         O10       1.0000    0.82450   0.24560   0.15160   Biso      1.000     O          -0.657855           
         O11       1.0000    0.67020   0.60150   0.73300   Biso      1.000     O          -0.493133           
         O12       1.0000    0.87440   0.57000   0.66830   Biso      1.000     O          -0.648486           
         O13       1.0000    0.84100   0.50630   0.48240   Biso      1.000     O          -0.729291           
         O14       1.0000    0.07310   0.72550   0.60570   Biso      1.000     O          -0.651763           
         O15       1.0000    0.01660   0.66630   0.41240   Biso      1.000     O          -0.696705           
         O16       1.0000    0.32930   0.68990   0.78070   Biso      1.000     O          -0.6546069999999999           
         O17       1.0000    0.67070   0.31010   0.21930   Biso      1.000     O          -0.6546069999999999           
         O18       1.0000    0.23510   0.98520   0.99640   Biso      1.000     O          -0.496777 