
##########################################################################
#               Crystallographic Information Format file
#               Produced by PyCifRW module
#
#  This is a CIF file.  CIF has been adopted by the International
#  Union of Crystallography as the standard for data archiving and
#  transmission.
#
#  For information on this file format, follow the CIF links at
#  http://www.iucr.org
##########################################################################

data_image0

_cell_length_a                          10.5507
_cell_length_b                          10.9265
_cell_length_c                          12.8978
_cell_angle_alpha                       103.184
_cell_angle_beta                        111.147
_cell_angle_gamma                       96.566
_symmetry_space_group_name_H-M          'P 1'
_symmetry_int_tables_number             1
loop_
  _symmetry_equiv_pos_as_xyz
         'x, y, z' 
loop_
  _atom_site_label
  _atom_site_occupancy
  _atom_site_fract_x
  _atom_site_fract_y
  _atom_site_fract_z
  _atom_site_thermal_displace_type
  _atom_site_B_iso_or_equiv
  _atom_site_type_symbol
  _atom_site_charge
         C1        1.0000    0.97910   0.12290   0.49360   Biso      1.000     C          -0.159486           
         C2        1.0000    0.79320   0.52780   0.55160   Biso      1.000     C          0.695445  
         C3        1.0000    0.54570   0.46700   0.41180   Biso      1.000     C          -0.207735           
         C4        1.0000    0.64220   0.51390   0.52730   Biso      1.000     C          -0.154136           
         C5        1.0000    0.59540   0.54700   0.61580   Biso      1.000     C          0.318463  
         C6        1.0000    0.03680   0.74330   0.50760   Biso      1.000     C          0.6981149999999999  
         C7        1.0000    0.00030   0.91170   0.40530   Biso      1.000     C          -0.215781           
         C8        1.0000    0.02090   0.87710   0.50640   Biso      1.000     C          -0.159485           
         C9        1.0000    0.02100   0.96780   0.60310   Biso      1.000     C          0.31588099999999997           
         C10       1.0000    0.46420   0.09590   0.06760   Biso      1.000     C          -0.210862           
         C11       1.0000    0.70460   0.23020   0.15430   Biso      1.000     C          0.610367  
         C12       1.0000    0.97900   0.03220   0.39690   Biso      1.000     C          0.31588299999999997           
         C13       1.0000    0.99970   0.08830   0.59470   Biso      1.000     C          -0.21577800000000003          
         C14       1.0000    0.96320   0.25670   0.49240   Biso      1.000     C          0.698114  
         C15       1.0000    0.40460   0.45300   0.38420   Biso      1.000     C          0.318467  
         C16       1.0000    0.35780   0.48610   0.47270   Biso      1.000     C          -0.154137           
         C17       1.0000    0.45430   0.53300   0.58820   Biso      1.000     C          -0.207731           
         C18       1.0000    0.20680   0.47220   0.44840   Biso      1.000     C          0.695444  
         C19       1.0000    0.36400   0.98680   0.99410   Biso      1.000     C          0.30790300000000004           
         C20       1.0000    0.39930   0.88970   0.92470   Biso      1.000     C          -0.141996           
         C21       1.0000    0.53580   0.90410   0.93240   Biso      1.000     C          -0.210862           
         C22       1.0000    0.29540   0.76980   0.84570   Biso      1.000     C          0.610366  
         C23       1.0000    0.63600   0.01320   0.00590   Biso      1.000     C          0.30790300000000004           
         C24       1.0000    0.60070   0.11030   0.07530   Biso      1.000     C          -0.141996           
         Er1       1.0000    0.89354   0.45347   0.31733   Biso      1.000     Er          2.079889  
         Er2       1.0000    0.10646   0.54653   0.68267   Biso      1.000     Er          2.079889  
         H1        1.0000    0.42290   0.55520   0.64740   Biso      1.000     H          0.145768  
         H2        1.0000    0.55980   0.83920   0.88730   Biso      1.000     H          0.154727  
         H3        1.0000    0.05320   0.87000   0.70160   Biso      1.000     H          0.400426  
         H4        1.0000    0.81600   0.08840   0.04940   Biso      1.000     H          0.40466199999999997           
         H5        1.0000    0.00090   0.85200   0.34130   Biso      1.000     H          0.146009  
         H6        1.0000    0.57710   0.44480   0.35260   Biso      1.000     H          0.145769  
         H7        1.0000    0.76340   0.59600   0.73720   Biso      1.000     H          0.401353  
         H8        1.0000    0.94680   0.13000   0.29840   Biso      1.000     H          0.400426  
         H9        1.0000    0.23660   0.40400   0.26280   Biso      1.000     H          0.401353  
         H10       1.0000    0.18400   0.91160   0.95060   Biso      1.000     H          0.40466199999999997           
         H11       1.0000    0.99910   0.14800   0.65870   Biso      1.000     H          0.146008  
         H12       1.0000    0.44020   0.16080   0.11270   Biso      1.000     H          0.154727  
         O1        1.0000    0.98510   0.33720   0.58660   Biso      1.000     O          -0.714517           
         O2        1.0000    0.17370   0.75030   0.84480   Biso      1.000     O          -0.671149           
         O3        1.0000    0.31720   0.40610   0.26970   Biso      1.000     O          -0.49753100000000006          
         O4        1.0000    0.12080   0.43520   0.34280   Biso      1.000     O          -0.6671779999999999           
         O5        1.0000    0.16820   0.49690   0.53010   Biso      1.000     O          -0.729125           
         O6        1.0000    0.95890   0.05650   0.29400   Biso      1.000     O          -0.497688           
         O7        1.0000    0.92830   0.28010   0.39490   Biso      1.000     O          -0.6542789999999999           
         O8        1.0000    0.76520   0.01910   0.00580   Biso      1.000     O          -0.495608           
         O9        1.0000    0.04110   0.94350   0.70600   Biso      1.000     O          -0.497687           
         O10       1.0000    0.82630   0.24970   0.15520   Biso      1.000     O          -0.671149           
         O11       1.0000    0.68280   0.59390   0.73030   Biso      1.000     O          -0.49753100000000006          
         O12       1.0000    0.87920   0.56480   0.65720   Biso      1.000     O          -0.6671779999999999           
         O13       1.0000    0.83180   0.50310   0.46990   Biso      1.000     O          -0.729125           
         O14       1.0000    0.07170   0.71990   0.60510   Biso      1.000     O          -0.65428  
         O15       1.0000    0.01490   0.66280   0.41340   Biso      1.000     O          -0.714517           
         O16       1.0000    0.32820   0.68800   0.78010   Biso      1.000     O          -0.661944           
         O17       1.0000    0.67180   0.31200   0.21990   Biso      1.000     O          -0.661944           
         O18       1.0000    0.23480   0.98090   0.99420   Biso      1.000     O          -0.495608 