
##########################################################################
#               Crystallographic Information Format file
#               Produced by PyCifRW module
#
#  This is a CIF file.  CIF has been adopted by the International
#  Union of Crystallography as the standard for data archiving and
#  transmission.
#
#  For information on this file format, follow the CIF links at
#  http://www.iucr.org
##########################################################################

data_image0

_cell_length_a                          10.414
_cell_length_b                          10.954
_cell_length_c                          12.432
_cell_angle_alpha                       104.286
_cell_angle_beta                        106.961
_cell_angle_gamma                       98.027
_symmetry_space_group_name_H-M          'P 1'
_symmetry_int_tables_number             1
loop_
  _symmetry_equiv_pos_as_xyz
         'x, y, z' 
loop_
  _atom_site_label
  _atom_site_occupancy
  _atom_site_fract_x
  _atom_site_fract_y
  _atom_site_fract_z
  _atom_site_thermal_displace_type
  _atom_site_B_iso_or_equiv
  _atom_site_type_symbol
  _atom_site_charge
         C1        1.0000    0.99931   0.76220   0.01391   Biso      1.000     C          0.678778  
         C2        1.0000    0.60153   0.60457   0.57095   Biso      1.000     C          -0.119922           
         C3        1.0000    0.63348   0.99296   0.01807   Biso      1.000     C          -0.12153199999999999          
         C4        1.0000    0.78579   0.99638   0.04765   Biso      1.000     C          0.661993  
         C5        1.0000    0.87461   0.39232   0.93811   Biso      1.000     C          -0.196476           
         C6        1.0000    0.10772   0.45784   0.07661   Biso      1.000     C          0.278061  
         C7        1.0000    0.99057   0.35723   0.00444   Biso      1.000     C          -0.113016           
         C8        1.0000    0.98789   0.21548   0.99206   Biso      1.000     C          0.5870449999999999  
         C9        1.0000    0.56093   0.02886   0.92105   Biso      1.000     C          -0.190619           
         C10       1.0000    0.56444   0.97131   0.09713   Biso      1.000     C          0.277015  
         C11       1.0000    0.70577   0.71909   0.65903   Biso      1.000     C          0.596751  
         C12       1.0000    0.46630   0.58626   0.57266   Biso      1.000     C          -0.221367           
         C13       1.0000    0.63400   0.51093   0.48721   Biso      1.000     C          0.28312800000000005           
         C14       1.0000    0.29199   0.26826   0.33051   Biso      1.000     C          0.6164569999999999  
         C15       1.0000    0.42525   0.04640   0.90338   Biso      1.000     C          0.28029299999999996           
         C16       1.0000    0.42625   0.98411   0.07730   Biso      1.000     C          -0.233594           
         C17       1.0000    0.99172   0.62259   0.01162   Biso      1.000     C          -0.134019           
         C18       1.0000    0.87282   0.52183   0.94195   Biso      1.000     C          0.281625  
         C19       1.0000    0.10694   0.58815   0.07975   Biso      1.000     C          -0.233983           
         C20       1.0000    0.20087   0.01529   0.95051   Biso      1.000     C          0.572832  
         C21       1.0000    0.35391   0.02127   0.98079   Biso      1.000     C          -0.117459           
         C22       1.0000    0.39857   0.38249   0.41462   Biso      1.000     C          -0.09471900000000001          
         C23       1.0000    0.36459   0.47707   0.49483   Biso      1.000     C          0.278823  
         C24       1.0000    0.53363   0.39943   0.41326   Biso      1.000     C          -0.188094           
         Gd1       1.0000    0.89352   0.92423   0.80621   Biso      1.000     Gd          2.0929279999999997  
         Gd2       1.0000    0.09433   0.06687   0.19436   Biso      1.000     Gd          2.067301  
         H1        1.0000    0.19879   0.66303   0.13389   Biso      1.000     H          0.115133  
         H2        1.0000    0.55992   0.32862   0.35026   Biso      1.000     H          0.15218399999999999           
         H3        1.0000    0.43966   0.65660   0.63575   Biso      1.000     H          0.13699   
         H4        1.0000    0.28776   0.13493   0.81650   Biso      1.000     H          0.37202199999999996           
         H5        1.0000    0.30459   0.50616   0.19119   Biso      1.000     H          0.34825500000000004           
         H6        1.0000    0.21682   0.53324   0.55972   Biso      1.000     H          0.366254  
         H7        1.0000    0.78231   0.31828   0.88323   Biso      1.000     H          0.139491  
         H8        1.0000    0.57622   0.92102   0.24595   Biso      1.000     H          0.356796  
         H9        1.0000    0.37396   0.96142   0.13593   Biso      1.000     H          0.116559  
         H10       1.0000    0.81054   0.61950   0.48929   Biso      1.000     H          0.36841199999999996           
         H11       1.0000    0.74062   0.63843   0.90202   Biso      1.000     H          0.367863  
         H12       1.0000    0.61238   0.05058   0.86156   Biso      1.000     H          0.13749   
         O1        1.0000    0.23051   0.46033   0.49883   Biso      1.000     O          -0.439668           
         O2        1.0000    0.36730   0.09370   0.80994   Biso      1.000     O          -0.475609           
         O3        1.0000    0.74881   0.54550   0.87835   Biso      1.000     O          -0.46560100000000004          
         O4        1.0000    0.31742   0.15884   0.28642   Biso      1.000     O          -0.690354           
         O5        1.0000    0.16479   0.27159   0.29774   Biso      1.000     O          -0.6356430000000001           
         O6        1.0000    0.94197   0.78515   0.91607   Biso      1.000     O          -0.634764           
         O7        1.0000    0.06439   0.85027   0.11345   Biso      1.000     O          -0.710516           
         O8        1.0000    0.12389   0.97859   0.84392   Biso      1.000     O          -0.7440319999999999           
         O9        1.0000    0.76173   0.52645   0.47060   Biso      1.000     O          -0.458545           
         O10       1.0000    0.63331   0.93467   0.19459   Biso      1.000     O          -0.45624899999999996          
         O11       1.0000    0.67452   0.81792   0.71744   Biso      1.000     O          -0.6753020000000001           
         O12       1.0000    0.83498   0.72725   0.68317   Biso      1.000     O          -0.664283           
         O13       1.0000    0.08694   0.18113   0.05924   Biso      1.000     O          -0.48922899999999997          
         O14       1.0000    0.89455   0.13057   0.90310   Biso      1.000     O          -0.670533           
         O15       1.0000    0.85028   0.97246   0.97512   Biso      1.000     O          -0.67185  
         O16       1.0000    0.86364   0.03675   0.15389   Biso      1.000     O          -0.69308  
         O17       1.0000    0.13347   0.03535   0.02202   Biso      1.000     O          -0.558581           
         O18       1.0000    0.22622   0.42796   0.14238   Biso      1.000     O          -0.431841 