
##########################################################################
#               Crystallographic Information Format file
#               Produced by PyCifRW module
#
#  This is a CIF file.  CIF has been adopted by the International
#  Union of Crystallography as the standard for data archiving and
#  transmission.
#
#  For information on this file format, follow the CIF links at
#  http://www.iucr.org
##########################################################################

data_image0

_cell_length_a                          13.6605
_cell_length_b                          15.0103
_cell_length_c                          18.5345
_cell_angle_alpha                       69.051
_cell_angle_beta                        71.145
_cell_angle_gamma                       65.014
_symmetry_space_group_name_H-M          'P 1'
_symmetry_int_tables_number             1
loop_
  _symmetry_equiv_pos_as_xyz
         'x, y, z' 
loop_
  _atom_site_label
  _atom_site_occupancy
  _atom_site_fract_x
  _atom_site_fract_y
  _atom_site_fract_z
  _atom_site_thermal_displace_type
  _atom_site_B_iso_or_equiv
  _atom_site_type_symbol
  _atom_site_charge
         C1        1.0000    0.43530   0.67830   0.45600   Biso      1.000     C          0.6890189999999999  
         C2        1.0000    0.87600   0.83720   0.87200   Biso      1.000     C          0.06398   
         C3        1.0000    0.72440   0.96960   0.90900   Biso      1.000     C          0.181193  
         C4        1.0000    0.65410   0.12880   0.80460   Biso      1.000     C          -0.15576099999999998          
         C5        1.0000    0.57750   0.22460   0.78400   Biso      1.000     C          -0.059226           
         C6        1.0000    0.49520   0.26550   0.84430   Biso      1.000     C          -0.090126           
         C7        1.0000    0.49690   0.20920   0.92230   Biso      1.000     C          0.067694  
         C8        1.0000    0.64850   0.07550   0.88480   Biso      1.000     C          0.184613  
         C9        1.0000    0.40590   0.36730   0.82390   Biso      1.000     C          0.691135  
         C10       1.0000    0.92430   0.65770   0.95580   Biso      1.000     C          0.692227  
         C11       1.0000    0.19770   0.92080   0.48590   Biso      1.000     C          -0.158256           
         C12       1.0000    0.26520   0.82000   0.50180   Biso      1.000     C          -0.04893  
         C13       1.0000    0.36180   0.78950   0.44750   Biso      1.000     C          -0.09002  
         C14       1.0000    0.38810   0.86360   0.38400   Biso      1.000     C          0.07095499999999999           
         C15       1.0000    0.22820   0.98820   0.41850   Biso      1.000     C          0.19286   
         C16       1.0000    0.16680   0.14820   0.31470   Biso      1.000     C          -0.155171           
         C17       1.0000    0.09020   0.24300   0.28930   Biso      1.000     C          -0.052538           
         C18       1.0000    0.99880   0.27920   0.34440   Biso      1.000     C          -0.078302           
         C19       1.0000    0.99060   0.22200   0.42280   Biso      1.000     C          0.055798  
         C20       1.0000    0.15210   0.09340   0.39280   Biso      1.000     C          0.17788800000000002           
         C21       1.0000    0.90390   0.37510   0.31820   Biso      1.000     C          0.677834  
         C22       1.0000    0.77580   0.66060   0.24120   Biso      1.000     C          0.686493  
         C23       1.0000    0.85550   0.77010   0.94220   Biso      1.000     C          -0.089426           
         C24       1.0000    0.76750   0.80640   0.99960   Biso      1.000     C          -0.050789999999999995         
         C25       1.0000    0.70040   0.90840   0.98310   Biso      1.000     C          -0.159449           
         C26       1.0000    0.28600   0.66600   0.73250   Biso      1.000     C          0.699679  
         C27       1.0000    0.80230   0.07920   0.51410   Biso      1.000     C          -0.158256           
         C28       1.0000    0.73480   0.18000   0.49820   Biso      1.000     C          -0.04893  
         C29       1.0000    0.63820   0.21050   0.55250   Biso      1.000     C          -0.09002  
         C30       1.0000    0.61190   0.13640   0.61600   Biso      1.000     C          0.07095499999999999           
         C31       1.0000    0.77180   0.01180   0.58150   Biso      1.000     C          0.19286   
         C32       1.0000    0.83320   0.85180   0.68530   Biso      1.000     C          -0.155171           
         C33       1.0000    0.90980   0.75700   0.71070   Biso      1.000     C          -0.052538           
         C34       1.0000    0.00120   0.72080   0.65560   Biso      1.000     C          -0.078302           
         C35       1.0000    0.00940   0.77800   0.57720   Biso      1.000     C          0.055798  
         C36       1.0000    0.84790   0.90660   0.60720   Biso      1.000     C          0.17788800000000002           
         C37       1.0000    0.82530   0.90880   0.18960   Biso      1.000     C          -0.153277           
         C38       1.0000    0.09610   0.62490   0.68180   Biso      1.000     C          0.677834  
         C39       1.0000    0.17470   0.09120   0.81040   Biso      1.000     C          -0.153277           
         C40       1.0000    0.17160   0.18170   0.81560   Biso      1.000     C          -0.054896           
         C41       1.0000    0.22950   0.23980   0.75360   Biso      1.000     C          -0.08125399999999999          
         C42       1.0000    0.28980   0.20380   0.68710   Biso      1.000     C          0.049597  
         C43       1.0000    0.23720   0.05830   0.74380   Biso      1.000     C          0.179021  
         C44       1.0000    0.31150   0.92560   0.67410   Biso      1.000     C          -0.153842           
         C45       1.0000    0.32280   0.83090   0.67240   Biso      1.000     C          -0.052079999999999994         
         C46       1.0000    0.27040   0.76990   0.73530   Biso      1.000     C          -0.085235           
         C47       1.0000    0.20240   0.80830   0.79880   Biso      1.000     C          0.054117  
         C48       1.0000    0.24500   0.96030   0.73990   Biso      1.000     C          0.184     
         C49       1.0000    0.22420   0.33940   0.75880   Biso      1.000     C          0.686493  
         C50       1.0000    0.82840   0.81830   0.18440   Biso      1.000     C          -0.054896           
         C51       1.0000    0.56470   0.32170   0.54400   Biso      1.000     C          0.6890189999999999  
         C52       1.0000    0.12400   0.16280   0.12800   Biso      1.000     C          0.06398   
         C53       1.0000    0.29960   0.09160   0.01690   Biso      1.000     C          -0.159452           
         C54       1.0000    0.14450   0.22990   0.05780   Biso      1.000     C          -0.089426           
         C55       1.0000    0.77050   0.76020   0.24640   Biso      1.000     C          -0.081255           
         C56       1.0000    0.71400   0.33400   0.26750   Biso      1.000     C          0.699679  
         C57       1.0000    0.27560   0.03040   0.09100   Biso      1.000     C          0.181195  
         C58       1.0000    0.75500   0.03970   0.26010   Biso      1.000     C          0.183999  
         C59       1.0000    0.79760   0.19170   0.20120   Biso      1.000     C          0.054116  
         C60       1.0000    0.34590   0.87120   0.19540   Biso      1.000     C          -0.15576099999999998          
         C61       1.0000    0.42250   0.77540   0.21600   Biso      1.000     C          -0.059226           
         C62       1.0000    0.23250   0.19360   0.00040   Biso      1.000     C          -0.050789999999999995         
         C63       1.0000    0.50480   0.73450   0.15570   Biso      1.000     C          -0.090126           
         C64       1.0000    0.67720   0.16910   0.32760   Biso      1.000     C          -0.052085           
         C65       1.0000    0.50310   0.79080   0.07770   Biso      1.000     C          0.067694  
         C66       1.0000    0.35150   0.92450   0.11520   Biso      1.000     C          0.184613  
         C67       1.0000    0.68850   0.07440   0.32590   Biso      1.000     C          -0.153837           
         C68       1.0000    0.59410   0.63270   0.17610   Biso      1.000     C          0.691135  
         C69       1.0000    0.76280   0.94170   0.25620   Biso      1.000     C          0.179021  
         C70       1.0000    0.07570   0.34230   0.04420   Biso      1.000     C          0.692227  
         C71       1.0000    0.71020   0.79620   0.31290   Biso      1.000     C          0.049597  
         C72       1.0000    0.72960   0.23010   0.26470   Biso      1.000     C          -0.085233           
         Dy1       1.0000    0.62999   0.50384   0.36986   Biso      1.000     Dy          2.207245  
         Dy2       1.0000    0.37001   0.49616   0.63014   Biso      1.000     Dy          2.207245  
         Dy3       1.0000    0.84786   0.49709   0.13764   Biso      1.000     Dy          2.133869  
         Dy4       1.0000    0.15214   0.50291   0.86236   Biso      1.000     Dy          2.133869  
         H1        1.0000    0.86830   0.05720   0.47920   Biso      1.000     H          0.127652  
         H2        1.0000    0.22900   0.12120   0.27880   Biso      1.000     H          0.122748  
         H3        1.0000    0.41980   0.73860   0.26850   Biso      1.000     H          0.114428  
         H4        1.0000    0.93770   0.81340   0.83450   Biso      1.000     H          0.094157  
         H5        1.0000    0.83420   0.23090   0.15960   Biso      1.000     H          0.10116499999999999           
         H6        1.0000    0.10010   0.28070   0.23700   Biso      1.000     H          0.12779300000000002           
         H7        1.0000    0.75310   0.76290   0.04890   Biso      1.000     H          0.115675  
         H8        1.0000    0.55520   0.76230   0.03780   Biso      1.000     H          0.102556  
         H9        1.0000    0.93060   0.24900   0.46000   Biso      1.000     H          0.09858099999999999           
         H10       1.0000    0.63380   0.19320   0.37160   Biso      1.000     H          0.11719   
         H11       1.0000    0.65260   0.03480   0.36760   Biso      1.000     H          0.13447699999999999           
         H12       1.0000    0.70880   0.09970   0.76600   Biso      1.000     H          0.128164  
         H13       1.0000    0.16580   0.76910   0.84040   Biso      1.000     H          0.101164  
         H14       1.0000    0.36620   0.80680   0.62840   Biso      1.000     H          0.11719   
         H15       1.0000    0.34740   0.96520   0.63240   Biso      1.000     H          0.134478  
         H16       1.0000    0.32740   0.24210   0.64560   Biso      1.000     H          0.10709500000000001           
         H17       1.0000    0.13090   0.20460   0.86050   Biso      1.000     H          0.123705  
         H18       1.0000    0.13560   0.05330   0.85090   Biso      1.000     H          0.133822  
         H19       1.0000    0.06940   0.75100   0.54000   Biso      1.000     H          0.09858099999999999           
         H20       1.0000    0.89990   0.71930   0.76300   Biso      1.000     H          0.12779300000000002           
         H21       1.0000    0.77100   0.87880   0.72120   Biso      1.000     H          0.122748  
         H22       1.0000    0.54430   0.15540   0.65030   Biso      1.000     H          0.0953    
         H23       1.0000    0.75350   0.22630   0.45200   Biso      1.000     H          0.11849100000000001           
         H24       1.0000    0.86910   0.79540   0.13950   Biso      1.000     H          0.123705  
         H25       1.0000    0.86440   0.94670   0.14910   Biso      1.000     H          0.133822  
         H26       1.0000    0.29120   0.90030   0.23400   Biso      1.000     H          0.128164  
         H27       1.0000    0.64110   0.93450   0.02100   Biso      1.000     H          0.128823  
         H28       1.0000    0.45570   0.84460   0.34970   Biso      1.000     H          0.0953    
         H29       1.0000    0.58020   0.26140   0.73150   Biso      1.000     H          0.114429  
         H30       1.0000    0.24690   0.23710   0.95110   Biso      1.000     H          0.115675  
         H31       1.0000    0.13170   0.94280   0.52080   Biso      1.000     H          0.127652  
         H32       1.0000    0.67260   0.75790   0.35440   Biso      1.000     H          0.10709500000000001           
         H33       1.0000    0.06230   0.18660   0.16550   Biso      1.000     H          0.094157  
         H34       1.0000    0.44480   0.23770   0.96220   Biso      1.000     H          0.102556  
         H35       1.0000    0.24650   0.77370   0.54800   Biso      1.000     H          0.11849100000000001           
         H36       1.0000    0.35890   0.06550   0.97900   Biso      1.000     H          0.128823  
         N1        1.0000    0.18730   0.06420   0.14630   Biso      1.000     N          -0.29318099999999997          
         N2        1.0000    0.81210   0.09550   0.19840   Biso      1.000     N          -0.31003400000000003          
         N3        1.0000    0.70470   0.88720   0.31880   Biso      1.000     N          -0.302297           
         N4        1.0000    0.32360   0.96080   0.36820   Biso      1.000     N          -0.291745           
         N5        1.0000    0.06460   0.12960   0.44780   Biso      1.000     N          -0.296175           
         N6        1.0000    0.42940   0.88450   0.05760   Biso      1.000     N          -0.29634299999999997          
         N7        1.0000    0.57060   0.11550   0.94240   Biso      1.000     N          -0.29634299999999997          
         N8        1.0000    0.81270   0.93580   0.85370   Biso      1.000     N          -0.29318099999999997          
         N9        1.0000    0.18790   0.90450   0.80160   Biso      1.000     N          -0.31003400000000003          
         N10       1.0000    0.29530   0.11280   0.68120   Biso      1.000     N          -0.302297           
         N11       1.0000    0.67640   0.03920   0.63180   Biso      1.000     N          -0.291745           
         N12       1.0000    0.93540   0.87040   0.55220   Biso      1.000     N          -0.296175           
         O1        1.0000    0.26680   0.39120   0.69880   Biso      1.000     O          -0.718487           
         O2        1.0000    0.98860   0.62760   0.89690   Biso      1.000     O          -0.702612           
         O3        1.0000    0.01140   0.37240   0.10310   Biso      1.000     O          -0.702612           
         O4        1.0000    0.64740   0.36580   0.32470   Biso      1.000     O          -0.6757380000000001           
         O5        1.0000    0.35260   0.63420   0.67530   Biso      1.000     O          -0.6757380000000001           
         O6        1.0000    0.40660   0.61360   0.51440   Biso      1.000     O          -0.773641           
         O7        1.0000    0.92280   0.42950   0.24920   Biso      1.000     O          -0.676982           
         O8        1.0000    0.48270   0.34040   0.59820   Biso      1.000     O          -0.696706           
         O9        1.0000    0.59340   0.38640   0.48560   Biso      1.000     O          -0.773641           
         O10       1.0000    0.51730   0.65960   0.40180   Biso      1.000     O          -0.696706           
         O11       1.0000    0.07720   0.57050   0.75080   Biso      1.000     O          -0.676981           
         O12       1.0000    0.82280   0.63790   0.17700   Biso      1.000     O          -0.661579           
         O13       1.0000    0.09110   0.39720   0.97650   Biso      1.000     O          -0.7083109999999999           
         O14       1.0000    0.22900   0.62080   0.78740   Biso      1.000     O          -0.744541           
         O15       1.0000    0.18570   0.60870   0.63390   Biso      1.000     O          -0.693837           
         O16       1.0000    0.67010   0.60560   0.12050   Biso      1.000     O          -0.686293           
         O17       1.0000    0.58750   0.58280   0.24600   Biso      1.000     O          -0.733958           
         O18       1.0000    0.73320   0.60880   0.30120   Biso      1.000     O          -0.718487           
         O19       1.0000    0.90890   0.60280   0.02350   Biso      1.000     O          -0.7083109999999999           
         O20       1.0000    0.17720   0.36210   0.82300   Biso      1.000     O          -0.661579           
         O21       1.0000    0.32990   0.39440   0.87950   Biso      1.000     O          -0.686293           
         O22       1.0000    0.41250   0.41720   0.75400   Biso      1.000     O          -0.733958           
         O23       1.0000    0.77100   0.37920   0.21260   Biso      1.000     O          -0.744541           
         O24       1.0000    0.81430   0.39130   0.36610   Biso      1.000     O          -0.693837 