
##########################################################################
#               Crystallographic Information Format file
#               Produced by PyCifRW module
#
#  This is a CIF file.  CIF has been adopted by the International
#  Union of Crystallography as the standard for data archiving and
#  transmission.
#
#  For information on this file format, follow the CIF links at
#  http://www.iucr.org
##########################################################################

data_image0

_cell_length_a                          15.44
_cell_length_b                          15.44
_cell_length_c                          16.254
_cell_angle_alpha                       90
_cell_angle_beta                        90
_cell_angle_gamma                       120
_symmetry_space_group_name_H-M          'P 1'
_symmetry_int_tables_number             1
loop_
  _symmetry_equiv_pos_as_xyz
         'x, y, z' 
loop_
  _atom_site_label
  _atom_site_occupancy
  _atom_site_fract_x
  _atom_site_fract_y
  _atom_site_fract_z
  _atom_site_thermal_displace_type
  _atom_site_B_iso_or_equiv
  _atom_site_type_symbol
  _atom_site_charge
         C1        1.0000    0.78540   0.67480   0.19430   Biso      1.000     C          -0.144452           
         C2        1.0000    0.64680   0.50420   0.13960   Biso      1.000     C          0.55784   
         C3        1.0000    0.73440   0.57130   0.19720   Biso      1.000     C          0.133855  
         C4        1.0000    0.49580   0.14260   0.13960   Biso      1.000     C          0.557885  
         C5        1.0000    0.42870   0.16310   0.19720   Biso      1.000     C          0.13387   
         C6        1.0000    0.32520   0.11060   0.19430   Biso      1.000     C          -0.144481           
         C7        1.0000    0.14260   0.64680   0.13960   Biso      1.000     C          0.557871  
         C8        1.0000    0.16310   0.73440   0.19720   Biso      1.000     C          0.133871  
         C9        1.0000    0.11060   0.78540   0.19430   Biso      1.000     C          -0.144474           
         C10       1.0000    0.35320   0.49580   0.13960   Biso      1.000     C          0.557839  
         C11       1.0000    0.26560   0.42870   0.19720   Biso      1.000     C          0.133857  
         C12       1.0000    0.21460   0.32520   0.19430   Biso      1.000     C          -0.144453           
         C13       1.0000    0.50420   0.85740   0.13960   Biso      1.000     C          0.557884  
         C14       1.0000    0.57130   0.83690   0.19720   Biso      1.000     C          0.13387   
         C15       1.0000    0.88940   0.21460   0.19430   Biso      1.000     C          -0.144474           
         C16       1.0000    0.67480   0.88940   0.19430   Biso      1.000     C          -0.144481           
         C17       1.0000    0.32520   0.21460   0.69430   Biso      1.000     C          -0.144483           
         C18       1.0000    0.85740   0.50420   0.63960   Biso      1.000     C          0.557844  
         C19       1.0000    0.83690   0.57130   0.69720   Biso      1.000     C          0.133856  
         C20       1.0000    0.88940   0.67480   0.69430   Biso      1.000     C          -0.144451           
         C21       1.0000    0.64680   0.14260   0.63960   Biso      1.000     C          0.557877  
         C22       1.0000    0.73440   0.16310   0.69720   Biso      1.000     C          0.133866  
         C23       1.0000    0.78540   0.11060   0.69430   Biso      1.000     C          -0.144472           
         C24       1.0000    0.50420   0.64680   0.63960   Biso      1.000     C          0.557875  
         C25       1.0000    0.57130   0.73440   0.69720   Biso      1.000     C          0.133862  
         C26       1.0000    0.67480   0.78540   0.69430   Biso      1.000     C          -0.144484           
         C27       1.0000    0.14260   0.49580   0.63960   Biso      1.000     C          0.557843  
         C28       1.0000    0.16310   0.42870   0.69720   Biso      1.000     C          0.133856  
         C29       1.0000    0.11060   0.32520   0.69430   Biso      1.000     C          -0.144452           
         C30       1.0000    0.42870   0.26560   0.69720   Biso      1.000     C          0.13386   
         C31       1.0000    0.83690   0.26560   0.19720   Biso      1.000     C          0.133868  
         C32       1.0000    0.85740   0.35320   0.13960   Biso      1.000     C          0.557874  
         C33       1.0000    0.78540   0.11060   0.30570   Biso      1.000     C          -0.144472           
         C34       1.0000    0.86385   0.13615   0.25000   Biso      1.000     C          -0.054415           
         C35       1.0000    0.86385   0.72770   0.25000   Biso      1.000     C          -0.054419           
         C36       1.0000    0.27230   0.13615   0.25000   Biso      1.000     C          -0.054423           
         C37       1.0000    0.13615   0.86385   0.25000   Biso      1.000     C          -0.054415           
         C38       1.0000    0.13615   0.27230   0.25000   Biso      1.000     C          -0.054419           
         C39       1.0000    0.72770   0.86385   0.25000   Biso      1.000     C          -0.054423           
         C40       1.0000    0.13615   0.86385   0.75000   Biso      1.000     C          -0.054415           
         C41       1.0000    0.13615   0.27230   0.75000   Biso      1.000     C          -0.054419           
         C42       1.0000    0.72770   0.86385   0.75000   Biso      1.000     C          -0.054424           
         C43       1.0000    0.86385   0.13615   0.75000   Biso      1.000     C          -0.054415           
         C44       1.0000    0.86385   0.72770   0.75000   Biso      1.000     C          -0.054418           
         C45       1.0000    0.27230   0.13615   0.75000   Biso      1.000     C          -0.054423           
         C46       1.0000    0.50420   0.64680   0.36040   Biso      1.000     C          0.557875  
         C47       1.0000    0.57130   0.73440   0.30280   Biso      1.000     C          0.133863  
         C48       1.0000    0.67480   0.78540   0.30570   Biso      1.000     C          -0.144483           
         C49       1.0000    0.14260   0.49580   0.36040   Biso      1.000     C          0.557844  
         C50       1.0000    0.16310   0.42870   0.30280   Biso      1.000     C          0.133856  
         C51       1.0000    0.11060   0.32520   0.30570   Biso      1.000     C          -0.144451           
         C52       1.0000    0.35320   0.85740   0.36040   Biso      1.000     C          0.557878  
         C53       1.0000    0.26560   0.83690   0.30280   Biso      1.000     C          0.133866  
         C54       1.0000    0.21460   0.88940   0.30570   Biso      1.000     C          -0.144472           
         C55       1.0000    0.49580   0.35320   0.36040   Biso      1.000     C          0.557875  
         C56       1.0000    0.42870   0.26560   0.30280   Biso      1.000     C          0.133863  
         C57       1.0000    0.32520   0.21460   0.30570   Biso      1.000     C          -0.144482           
         C58       1.0000    0.85740   0.50420   0.36040   Biso      1.000     C          0.557844  
         C59       1.0000    0.83690   0.57130   0.30280   Biso      1.000     C          0.133856  
         C60       1.0000    0.88940   0.67480   0.30570   Biso      1.000     C          -0.144452           
         C61       1.0000    0.64680   0.14260   0.36040   Biso      1.000     C          0.557877  
         C62       1.0000    0.73440   0.16310   0.30280   Biso      1.000     C          0.133866  
         C63       1.0000    0.35320   0.85740   0.63960   Biso      1.000     C          0.557877  
         C64       1.0000    0.26560   0.83690   0.69720   Biso      1.000     C          0.133865  
         C65       1.0000    0.49580   0.35320   0.63960   Biso      1.000     C          0.557879  
         C66       1.0000    0.14260   0.64680   0.86040   Biso      1.000     C          0.55787   
         C67       1.0000    0.21460   0.88940   0.69430   Biso      1.000     C          -0.144472           
         C68       1.0000    0.42870   0.16310   0.80280   Biso      1.000     C          0.133865  
         C69       1.0000    0.49580   0.14260   0.86040   Biso      1.000     C          0.557889  
         C70       1.0000    0.78540   0.67480   0.80570   Biso      1.000     C          -0.144452           
         C71       1.0000    0.73440   0.57130   0.80280   Biso      1.000     C          0.133862  
         C72       1.0000    0.64680   0.50420   0.86040   Biso      1.000     C          0.557833  
         C73       1.0000    0.88940   0.21460   0.80570   Biso      1.000     C          -0.144474           
         C74       1.0000    0.83690   0.26560   0.80280   Biso      1.000     C          0.133868  
         C75       1.0000    0.32520   0.11060   0.80570   Biso      1.000     C          -0.14448  
         C76       1.0000    0.67480   0.88940   0.80570   Biso      1.000     C          -0.144482           
         C77       1.0000    0.57130   0.83690   0.80280   Biso      1.000     C          0.133866  
         C78       1.0000    0.50420   0.85740   0.86040   Biso      1.000     C          0.557887  
         C79       1.0000    0.21460   0.32520   0.80570   Biso      1.000     C          -0.144452           
         C80       1.0000    0.26560   0.42870   0.80280   Biso      1.000     C          0.133862  
         C81       1.0000    0.35320   0.49580   0.86040   Biso      1.000     C          0.557832  
         C82       1.0000    0.11060   0.78540   0.80570   Biso      1.000     C          -0.144475           
         C83       1.0000    0.16310   0.73440   0.80280   Biso      1.000     C          0.133871  
         C84       1.0000    0.85740   0.35320   0.86040   Biso      1.000     C          0.557874  
         H1        1.0000    0.94050   0.70850   0.65630   Biso      1.000     H          0.128981  
         H2        1.0000    0.29150   0.23200   0.65630   Biso      1.000     H          0.128993  
         H3        1.0000    0.29150   0.05950   0.15630   Biso      1.000     H          0.128997  
         H4        1.0000    0.23200   0.29150   0.15630   Biso      1.000     H          0.12899   
         H5        1.0000    0.05950   0.76800   0.15630   Biso      1.000     H          0.128998  
         H6        1.0000    0.76800   0.70850   0.15630   Biso      1.000     H          0.12899   
         H7        1.0000    0.70850   0.94050   0.15630   Biso      1.000     H          0.128997  
         H8        1.0000    0.76800   0.05950   0.65630   Biso      1.000     H          0.128996  
         H9        1.0000    0.05950   0.76800   0.84370   Biso      1.000     H          0.128997  
         H10       1.0000    0.23200   0.94050   0.65630   Biso      1.000     H          0.128996  
         H11       1.0000    0.23200   0.29150   0.84370   Biso      1.000     H          0.12899   
         H12       1.0000    0.70850   0.94050   0.84370   Biso      1.000     H          0.128995  
         H13       1.0000    0.94050   0.23200   0.84370   Biso      1.000     H          0.128998  
         H14       1.0000    0.76800   0.70850   0.84370   Biso      1.000     H          0.12899   
         H15       1.0000    0.94050   0.23200   0.15630   Biso      1.000     H          0.128998  
         H16       1.0000    0.29150   0.05950   0.84370   Biso      1.000     H          0.128997  
         H17       1.0000    0.70850   0.76800   0.65630   Biso      1.000     H          0.128992  
         H18       1.0000    0.76800   0.05950   0.34370   Biso      1.000     H          0.128997  
         H19       1.0000    0.05950   0.29150   0.65630   Biso      1.000     H          0.128981  
         H20       1.0000    0.29150   0.23200   0.34370   Biso      1.000     H          0.128993  
         H21       1.0000    0.89860   0.10140   0.25000   Biso      1.000     H          0.102687  
         H22       1.0000    0.94050   0.70850   0.34370   Biso      1.000     H          0.128982  
         H23       1.0000    0.20280   0.10140   0.25000   Biso      1.000     H          0.102685  
         H24       1.0000    0.10140   0.89860   0.25000   Biso      1.000     H          0.102688  
         H25       1.0000    0.10140   0.20280   0.25000   Biso      1.000     H          0.102684  
         H26       1.0000    0.79720   0.89860   0.25000   Biso      1.000     H          0.102685  
         H27       1.0000    0.10140   0.89860   0.75000   Biso      1.000     H          0.102687  
         H28       1.0000    0.10140   0.20280   0.75000   Biso      1.000     H          0.102684  
         H29       1.0000    0.89860   0.79720   0.25000   Biso      1.000     H          0.102684  
         H30       1.0000    0.89860   0.10140   0.75000   Biso      1.000     H          0.102687  
         H31       1.0000    0.89860   0.79720   0.75000   Biso      1.000     H          0.102684  
         H32       1.0000    0.20280   0.10140   0.75000   Biso      1.000     H          0.102685  
         H33       1.0000    0.70850   0.76800   0.34370   Biso      1.000     H          0.128993  
         H34       1.0000    0.05950   0.29150   0.34370   Biso      1.000     H          0.128982  
         H35       1.0000    0.23200   0.94050   0.34370   Biso      1.000     H          0.128997  
         H36       1.0000    0.79720   0.89860   0.75000   Biso      1.000     H          0.102684  
         Mn1       1.0000    0.50000   0.00000   0.00000   Biso      1.000     Mn          1.258128  
         Mn2       1.0000    0.50000   0.50000   0.00000   Biso      1.000     Mn          1.258217  
         Mn3       1.0000    0.00000   0.50000   0.00000   Biso      1.000     Mn          1.258224  
         Mn4       1.0000    0.50000   0.00000   0.50000   Biso      1.000     Mn          1.25823   
         Mn5       1.0000    0.50000   0.50000   0.50000   Biso      1.000     Mn          1.2582    
         Mn6       1.0000    0.00000   0.50000   0.50000   Biso      1.000     Mn          1.258216  
         N1        1.0000    0.75950   0.51900   0.25000   Biso      1.000     N          -0.249098           
         N2        1.0000    0.75950   0.24050   0.25000   Biso      1.000     N          -0.249073           
         N3        1.0000    0.48100   0.24050   0.25000   Biso      1.000     N          -0.249087           
         N4        1.0000    0.24050   0.75950   0.25000   Biso      1.000     N          -0.249074           
         N5        1.0000    0.24050   0.48100   0.25000   Biso      1.000     N          -0.249099           
         N6        1.0000    0.51900   0.75950   0.25000   Biso      1.000     N          -0.249088           
         N7        1.0000    0.24050   0.75950   0.75000   Biso      1.000     N          -0.249072           
         N8        1.0000    0.24050   0.48100   0.75000   Biso      1.000     N          -0.249099           
         N9        1.0000    0.75950   0.24050   0.75000   Biso      1.000     N          -0.249073           
         N10       1.0000    0.75950   0.51900   0.75000   Biso      1.000     N          -0.249099           
         N11       1.0000    0.48100   0.24050   0.75000   Biso      1.000     N          -0.249087           
         N12       1.0000    0.51900   0.75950   0.75000   Biso      1.000     N          -0.249087           
         O1        1.0000    0.45100   0.38350   0.59270   Biso      1.000     O          -0.547598           
         O2        1.0000    0.40870   0.79830   0.14590   Biso      1.000     O          -0.529526           
         O3        1.0000    0.54900   0.93250   0.09270   Biso      1.000     O          -0.547637           
         O4        1.0000    0.38960   0.59130   0.14590   Biso      1.000     O          -0.529437           
         O5        1.0000    0.38350   0.45100   0.09270   Biso      1.000     O          -0.54764  
         O6        1.0000    0.20170   0.61040   0.14590   Biso      1.000     O          -0.529459           
         O7        1.0000    0.06750   0.61650   0.09270   Biso      1.000     O          -0.547602           
         O8        1.0000    0.59130   0.20170   0.14590   Biso      1.000     O          -0.529524           
         O9        1.0000    0.45100   0.06750   0.09270   Biso      1.000     O          -0.547637           
         O10       1.0000    0.61040   0.40870   0.14590   Biso      1.000     O          -0.529438           
         O11       1.0000    0.61650   0.54900   0.09270   Biso      1.000     O          -0.54764  
         O12       1.0000    0.93250   0.38350   0.09270   Biso      1.000     O          -0.547602           
         O13       1.0000    0.61040   0.20170   0.35410   Biso      1.000     O          -0.529489           
         O14       1.0000    0.61650   0.06750   0.40730   Biso      1.000     O          -0.547594           
         O15       1.0000    0.79830   0.40870   0.35410   Biso      1.000     O          -0.52945  
         O16       1.0000    0.93250   0.54900   0.40730   Biso      1.000     O          -0.54765  
         O17       1.0000    0.59130   0.38960   0.35410   Biso      1.000     O          -0.529468           
         O18       1.0000    0.45100   0.38350   0.40730   Biso      1.000     O          -0.547598           
         O19       1.0000    0.38960   0.79830   0.35410   Biso      1.000     O          -0.529485           
         O20       1.0000    0.59130   0.38960   0.64590   Biso      1.000     O          -0.529469           
         O21       1.0000    0.38350   0.93250   0.40730   Biso      1.000     O          -0.547593           
         O22       1.0000    0.20170   0.59130   0.35410   Biso      1.000     O          -0.529451           
         O23       1.0000    0.06750   0.45100   0.40730   Biso      1.000     O          -0.54765  
         O24       1.0000    0.79830   0.38960   0.14590   Biso      1.000     O          -0.52946  
         O25       1.0000    0.93250   0.54900   0.59270   Biso      1.000     O          -0.54765  
         O26       1.0000    0.54900   0.61650   0.40730   Biso      1.000     O          -0.547598           
         O27       1.0000    0.61650   0.06750   0.59270   Biso      1.000     O          -0.547592           
         O28       1.0000    0.40870   0.61040   0.35410   Biso      1.000     O          -0.529469           
         O29       1.0000    0.59130   0.20170   0.85410   Biso      1.000     O          -0.529526           
         O30       1.0000    0.45100   0.06750   0.90730   Biso      1.000     O          -0.547637           
         O31       1.0000    0.61040   0.40870   0.85410   Biso      1.000     O          -0.529436           
         O32       1.0000    0.61650   0.54900   0.90730   Biso      1.000     O          -0.547638           
         O33       1.0000    0.79830   0.38960   0.85410   Biso      1.000     O          -0.52946  
         O34       1.0000    0.93250   0.38350   0.90730   Biso      1.000     O          -0.547602           
         O35       1.0000    0.40870   0.79830   0.85410   Biso      1.000     O          -0.529529           
         O36       1.0000    0.79830   0.40870   0.64590   Biso      1.000     O          -0.52945  
         O37       1.0000    0.38960   0.59130   0.85410   Biso      1.000     O          -0.529435           
         O38       1.0000    0.54900   0.93250   0.90730   Biso      1.000     O          -0.547638           
         O39       1.0000    0.20170   0.61040   0.85410   Biso      1.000     O          -0.529459           
         O40       1.0000    0.06750   0.61650   0.90730   Biso      1.000     O          -0.547602           
         O41       1.0000    0.38960   0.79830   0.64590   Biso      1.000     O          -0.529489           
         O42       1.0000    0.38350   0.93250   0.59270   Biso      1.000     O          -0.547593           
         O43       1.0000    0.20170   0.59130   0.64590   Biso      1.000     O          -0.52945  
         O44       1.0000    0.06750   0.45100   0.59270   Biso      1.000     O          -0.54765  
         O45       1.0000    0.40870   0.61040   0.64590   Biso      1.000     O          -0.529468           
         O46       1.0000    0.54900   0.61650   0.59270   Biso      1.000     O          -0.547598           
         O47       1.0000    0.61040   0.20170   0.64590   Biso      1.000     O          -0.529487           
         O48       1.0000    0.38350   0.45100   0.90730   Biso      1.000     O          -0.547639           
         Yb1       1.0000    0.66667   0.33334   0.25000   Biso      1.000     Yb          1.120192  
         Yb2       1.0000    0.33333   0.66666   0.25000   Biso      1.000     Yb          1.120194  
         Yb3       1.0000    0.33333   0.66666   0.75000   Biso      1.000     Yb          1.120191  
         Yb4       1.0000    0.66667   0.33334   0.75000   Biso      1.000     Yb          1.120192 