
##########################################################################
#               Crystallographic Information Format file
#               Produced by PyCifRW module
#
#  This is a CIF file.  CIF has been adopted by the International
#  Union of Crystallography as the standard for data archiving and
#  transmission.
#
#  For information on this file format, follow the CIF links at
#  http://www.iucr.org
##########################################################################

data_image0

_cell_length_a                          12.721
_cell_length_b                          12.855
_cell_length_c                          17.454
_cell_angle_alpha                       106.426
_cell_angle_beta                        102.724
_cell_angle_gamma                       99.862
_symmetry_space_group_name_H-M          'P 1'
_symmetry_int_tables_number             1
loop_
  _symmetry_equiv_pos_as_xyz
         'x, y, z' 
loop_
  _atom_site_label
  _atom_site_occupancy
  _atom_site_fract_x
  _atom_site_fract_y
  _atom_site_fract_z
  _atom_site_thermal_displace_type
  _atom_site_B_iso_or_equiv
  _atom_site_type_symbol
  _atom_site_charge
         C1        1.0000    0.38640   0.48970   0.10650   Biso      1.000     C          0.468549  
         C2        1.0000    0.64940   0.27140   0.61630   Biso      1.000     C          -0.532182           
         C3        1.0000    0.65890   0.40440   0.88000   Biso      1.000     C          -0.561173           
         C4        1.0000    0.65980   0.14720   0.70340   Biso      1.000     C          -0.545192           
         C5        1.0000    0.76350   0.15640   0.07400   Biso      1.000     C          -0.567229           
         C6        1.0000    0.98740   0.16240   0.43910   Biso      1.000     C          0.45973   
         C7        1.0000    0.71240   0.03570   0.06770   Biso      1.000     C          0.463117  
         C8        1.0000    0.76230   0.95370   0.01220   Biso      1.000     C          -0.534979           
         C9        1.0000    0.95290   0.25740   0.49630   Biso      1.000     C          -0.540517           
         C10       1.0000    0.34110   0.59560   0.12000   Biso      1.000     C          -0.56117  
         C11       1.0000    0.73570   0.02640   0.15380   Biso      1.000     C          -0.529305           
         C12       1.0000    0.48400   0.20470   0.66240   Biso      1.000     C          -0.562487           
         C13       1.0000    0.41560   0.82610   0.36500   Biso      1.000     C          0.466348  
         C14       1.0000    0.35060   0.72860   0.38370   Biso      1.000     C          -0.532178           
         C15       1.0000    0.90460   0.11860   0.35300   Biso      1.000     C          -0.540473           
         C16       1.0000    0.51600   0.79530   0.33760   Biso      1.000     C          -0.56248  
         C17       1.0000    0.10470   0.20570   0.43390   Biso      1.000     C          -0.554974           
         C18       1.0000    0.61360   0.51030   0.89350   Biso      1.000     C          0.468549  
         C19       1.0000    0.34020   0.85280   0.29660   Biso      1.000     C          -0.54519  
         C20       1.0000    0.54000   0.50800   0.81160   Biso      1.000     C          -0.543433           
         C21       1.0000    0.58440   0.17390   0.63500   Biso      1.000     C          0.466351  
         C22       1.0000    0.71060   0.61370   0.92890   Biso      1.000     C          -0.544408           
         C23       1.0000    0.46000   0.49200   0.18840   Biso      1.000     C          -0.543433           
         C24       1.0000    0.28940   0.38630   0.07110   Biso      1.000     C          -0.544408           
         C25       1.0000    0.28760   0.96430   0.93230   Biso      1.000     C          0.463114  
         C26       1.0000    0.89530   0.79430   0.56610   Biso      1.000     C          -0.554977           
         C27       1.0000    0.23770   0.04630   0.98780   Biso      1.000     C          -0.534983           
         C28       1.0000    0.01260   0.83760   0.56090   Biso      1.000     C          0.459741  
         C29       1.0000    0.26430   0.97360   0.84620   Biso      1.000     C          -0.529311           
         C30       1.0000    0.04710   0.74260   0.50370   Biso      1.000     C          -0.5405   
         C31       1.0000    0.09540   0.88140   0.64700   Biso      1.000     C          -0.54046  
         C32       1.0000    0.23650   0.84360   0.92600   Biso      1.000     C          -0.567225           
         Cl1       1.0000    0.43650   0.93747   0.13326   Biso      1.000     Cl          -0.35526  
         Cl2       1.0000    0.56350   0.06253   0.86674   Biso      1.000     Cl          -0.355244           
         Cl3       1.0000    0.69375   0.46062   0.09822   Biso      1.000     Cl          -0.446659           
         Cl4       1.0000    0.81612   0.83951   0.36719   Biso      1.000     Cl          -0.372573           
         Cl5       1.0000    0.37674   0.90399   0.59483   Biso      1.000     Cl          -0.389667           
         Cl6       1.0000    0.62326   0.09601   0.40517   Biso      1.000     Cl          -0.389666           
         Cl7       1.0000    0.30625   0.53938   0.90178   Biso      1.000     Cl          -0.446661           
         Cl8       1.0000    0.18388   0.16049   0.63281   Biso      1.000     Cl          -0.372574           
         H1        1.0000    0.83010   0.09090   0.35720   Biso      1.000     H          0.126035  
         H2        1.0000    0.15620   0.23850   0.49020   Biso      1.000     H          0.14147   
         H3        1.0000    0.12880   0.14350   0.40140   Biso      1.000     H          0.153613  
         H4        1.0000    0.26580   0.12230   0.98800   Biso      1.000     H          0.154355  
         H5        1.0000    0.25930   0.04450   0.04480   Biso      1.000     H          0.145576  
         H6        1.0000    0.15640   0.02440   0.96600   Biso      1.000     H          0.161363  
         H7        1.0000    0.10400   0.26290   0.40690   Biso      1.000     H          0.161815  
         H8        1.0000    0.29970   0.92380   0.81240   Biso      1.000     H          0.143113  
         H9        1.0000    0.92610   0.05750   0.31690   Biso      1.000     H          0.155391  
         H10       1.0000    0.51160   0.57540   0.82060   Biso      1.000     H          0.153891  
         H11       1.0000    0.58350   0.50580   0.77150   Biso      1.000     H          0.163274  
         H12       1.0000    0.59960   0.29050   0.57390   Biso      1.000     H          0.152949  
         H13       1.0000    0.59660   0.33760   0.85710   Biso      1.000     H          0.141107  
         H14       1.0000    0.70510   0.40570   0.93340   Biso      1.000     H          0.140409  
         H15       1.0000    0.70390   0.40300   0.84100   Biso      1.000     H          0.157489  
         H16       1.0000    0.75620   0.61130   0.89020   Biso      1.000     H          0.157406  
         H17       1.0000    0.75610   0.61540   0.98270   Biso      1.000     H          0.138269  
         H18       1.0000    0.68220   0.68100   0.93670   Biso      1.000     H          0.153049  
         H19       1.0000    0.71070   0.24920   0.59570   Biso      1.000     H          0.150325  
         H20       1.0000    0.25610   0.83610   0.98140   Biso      1.000     H          0.135392  
         H21       1.0000    0.00340   0.28210   0.55280   Biso      1.000     H          0.13388   
         H22       1.0000    0.87660   0.23030   0.49740   Biso      1.000     H          0.141932  
         H23       1.0000    0.26550   0.79140   0.88840   Biso      1.000     H          0.139436  
         H24       1.0000    0.95670   0.32050   0.47510   Biso      1.000     H          0.157805  
         H25       1.0000    0.15540   0.82650   0.90430   Biso      1.000     H          0.160536  
         H26       1.0000    0.47740   0.44140   0.78970   Biso      1.000     H          0.148593  
         H27       1.0000    0.90410   0.17920   0.32930   Biso      1.000     H          0.15897   
         H28       1.0000    0.67940   0.33650   0.66740   Biso      1.000     H          0.15708   
         H29       1.0000    0.49000   0.73060   0.28610   Biso      1.000     H          0.168827  
         H30       1.0000    0.31060   0.78580   0.24680   Biso      1.000     H          0.157144  
         H31       1.0000    0.68940   0.21420   0.75320   Biso      1.000     H          0.157143  
         H32       1.0000    0.40340   0.66240   0.14290   Biso      1.000     H          0.14111   
         H33       1.0000    0.29490   0.59430   0.06660   Biso      1.000     H          0.14041   
         H34       1.0000    0.29610   0.59700   0.15900   Biso      1.000     H          0.15749   
         H35       1.0000    0.24380   0.38870   0.10980   Biso      1.000     H          0.157403  
         H36       1.0000    0.24390   0.38460   0.01730   Biso      1.000     H          0.138261  
         H37       1.0000    0.31780   0.31900   0.06330   Biso      1.000     H          0.15305   
         H38       1.0000    0.99660   0.71790   0.44720   Biso      1.000     H          0.133872  
         H39       1.0000    0.12340   0.76970   0.50260   Biso      1.000     H          0.14192   
         H40       1.0000    0.04330   0.67950   0.52490   Biso      1.000     H          0.157797  
         H41       1.0000    0.48840   0.42460   0.17940   Biso      1.000     H          0.153893  
         H42       1.0000    0.52260   0.55860   0.21030   Biso      1.000     H          0.148594  
         H43       1.0000    0.41650   0.49420   0.22850   Biso      1.000     H          0.163275  
         H44       1.0000    0.09590   0.82080   0.67070   Biso      1.000     H          0.158963  
         H45       1.0000    0.16990   0.90910   0.64280   Biso      1.000     H          0.126027  
         H46       1.0000    0.07390   0.94250   0.68310   Biso      1.000     H          0.155383  
         H47       1.0000    0.87120   0.85650   0.59860   Biso      1.000     H          0.15361   
         H48       1.0000    0.84380   0.76150   0.50980   Biso      1.000     H          0.141466  
         H49       1.0000    0.89600   0.73710   0.59310   Biso      1.000     H          0.161818  
         H50       1.0000    0.61710   0.08700   0.71680   Biso      1.000     H          0.125508  
         H51       1.0000    0.72150   0.12310   0.68450   Biso      1.000     H          0.156648  
         H52       1.0000    0.18380   0.95190   0.82000   Biso      1.000     H          0.165647  
         H53       1.0000    0.74390   0.16390   0.01860   Biso      1.000     H          0.135388  
         H54       1.0000    0.38290   0.91300   0.28320   Biso      1.000     H          0.125511  
         H55       1.0000    0.27850   0.87690   0.31550   Biso      1.000     H          0.156648  
         H56       1.0000    0.56370   0.77650   0.38140   Biso      1.000     H          0.139509  
         H57       1.0000    0.55850   0.85900   0.32790   Biso      1.000     H          0.138644  
         H58       1.0000    0.29440   0.05100   0.85030   Biso      1.000     H          0.150594  
         H59       1.0000    0.32060   0.66350   0.33260   Biso      1.000     H          0.15708   
         H60       1.0000    0.28930   0.75080   0.40430   Biso      1.000     H          0.150325  
         H61       1.0000    0.40040   0.70950   0.42610   Biso      1.000     H          0.152948  
         H62       1.0000    0.51000   0.26940   0.71390   Biso      1.000     H          0.16883   
         H63       1.0000    0.44150   0.14100   0.67210   Biso      1.000     H          0.138644  
         H64       1.0000    0.81620   0.04810   0.18000   Biso      1.000     H          0.165646  
         H65       1.0000    0.43630   0.22350   0.61860   Biso      1.000     H          0.139513  
         H66       1.0000    0.70560   0.94900   0.14970   Biso      1.000     H          0.150591  
         H67       1.0000    0.70030   0.07620   0.18760   Biso      1.000     H          0.143113  
         H68       1.0000    0.74070   0.95550   0.95520   Biso      1.000     H          0.145569  
         H69       1.0000    0.73420   0.87770   0.01200   Biso      1.000     H          0.154354  
         H70       1.0000    0.84360   0.97560   0.03400   Biso      1.000     H          0.161364  
         H71       1.0000    0.84460   0.17350   0.09570   Biso      1.000     H          0.160537  
         H72       1.0000    0.73450   0.20860   0.11160   Biso      1.000     H          0.139441  
         N1        1.0000    0.58880   0.00350   0.02970   Biso      1.000     N          -0.526249           
         N2        1.0000    0.54690   0.51530   0.95490   Biso      1.000     N          -0.518304           
         N3        1.0000    0.98120   0.06710   0.47340   Biso      1.000     N          -0.526489           
         N4        1.0000    0.01880   0.93290   0.52660   Biso      1.000     N          -0.526467           
         N5        1.0000    0.45310   0.48470   0.04510   Biso      1.000     N          -0.518327           
         N6        1.0000    0.45230   0.92570   0.44240   Biso      1.000     N          -0.513903           
         N7        1.0000    0.41120   0.99650   0.97030   Biso      1.000     N          -0.526252           
         N8        1.0000    0.54770   0.07430   0.55760   Biso      1.000     N          -0.513908           
         Na1       1.0000    0.46623   0.74870   0.00960   Biso      1.000     Na          0.804595  
         Na2       1.0000    0.52686   0.84230   0.71720   Biso      1.000     Na          0.773527  
         Na3       1.0000    0.47314   0.15770   0.28280   Biso      1.000     Na          0.773526  
         Na4       1.0000    0.15259   0.31854   0.77870   Biso      1.000     Na          0.712133  
         Na5       1.0000    0.25476   0.01960   0.50634   Biso      1.000     Na          0.804254  
         Na6       1.0000    0.74524   0.98040   0.49366   Biso      1.000     Na          0.804261  
         Na7       1.0000    0.84741   0.68146   0.22130   Biso      1.000     Na          0.712068  
         Na8       1.0000    0.53377   0.25130   0.99040   Biso      1.000     Na          0.804599  
         P1        1.0000    0.49834   0.93573   0.54363   Biso      1.000     P          0.709461  
         P2        1.0000    0.41097   0.45432   0.94006   Biso      1.000     P          0.735242  
         P3        1.0000    0.02871   0.07091   0.57387   Biso      1.000     P          0.71951   
         P4        1.0000    0.51429   0.96429   0.92786   Biso      1.000     P          0.731998  
         P5        1.0000    0.50166   0.06427   0.45637   Biso      1.000     P          0.709453  
         P6        1.0000    0.58903   0.54568   0.05994   Biso      1.000     P          0.735216  
         P7        1.0000    0.97129   0.92909   0.42613   Biso      1.000     P          0.719506  
         P8        1.0000    0.48571   0.03571   0.07214   Biso      1.000     P          0.731984  
         S1        1.0000    0.07685   0.89845   0.35940   Biso      1.000     S          -0.740199           
         S2        1.0000    0.92315   0.10155   0.64060   Biso      1.000     S          -0.740214           
         S3        1.0000    0.36426   0.29159   0.87526   Biso      1.000     S          -0.751653           
         S4        1.0000    0.38421   0.14356   0.43277   Biso      1.000     S          -0.744002           
         S5        1.0000    0.51194   0.19793   0.13354   Biso      1.000     S          -0.794139           
         S6        1.0000    0.61579   0.85644   0.56723   Biso      1.000     S          -0.744005           
         S7        1.0000    0.48806   0.80207   0.86646   Biso      1.000     S          -0.794135           
         S8        1.0000    0.63574   0.70841   0.12474   Biso      1.000     S          -0.751646 