
##########################################################################
#               Crystallographic Information Format file
#               Produced by PyCifRW module
#
#  This is a CIF file.  CIF has been adopted by the International
#  Union of Crystallography as the standard for data archiving and
#  transmission.
#
#  For information on this file format, follow the CIF links at
#  http://www.iucr.org
##########################################################################

data_image0

_cell_length_a                          9.201
_cell_length_b                          9.2079
_cell_length_c                          15.3255
_cell_angle_alpha                       99.87
_cell_angle_beta                        99.8513
_cell_angle_gamma                       115.45
_symmetry_space_group_name_H-M          'P 1'
_symmetry_int_tables_number             1
loop_
  _symmetry_equiv_pos_as_xyz
         'x, y, z' 
loop_
  _atom_site_label
  _atom_site_occupancy
  _atom_site_fract_x
  _atom_site_fract_y
  _atom_site_fract_z
  _atom_site_thermal_displace_type
  _atom_site_B_iso_or_equiv
  _atom_site_type_symbol
  _atom_site_charge
         Ba1       1.0000    0.22133   0.97133   0.94266   Biso      1.000     Ba          1.559542  
         Ba2       1.0000    0.77867   0.02867   0.05734   Biso      1.000     Ba          1.559542  
         Ba3       1.0000    0.52090   0.77090   0.54180   Biso      1.000     Ba          1.538874  
         Ba4       1.0000    0.47910   0.22910   0.45820   Biso      1.000     Ba          1.538874  
         C1        1.0000    0.32570   0.40760   0.62480   Biso      1.000     C          0.520116  
         C2        1.0000    0.29540   0.24080   0.64540   Biso      1.000     C          0.504279  
         C3        1.0000    0.40000   0.72980   0.88640   Biso      1.000     C          0.49993999999999994           
         C4        1.0000    0.49280   0.62340   0.89100   Biso      1.000     C          0.502058  
         C5        1.0000    0.85000   0.40460   0.64540   Biso      1.000     C          0.506343  
         C6        1.0000    0.98640   0.15660   0.88640   Biso      1.000     C          0.498749  
         C7        1.0000    0.89820   0.26760   0.89100   Biso      1.000     C          0.5035109999999999  
         C8        1.0000    0.67430   0.59240   0.37520   Biso      1.000     C          0.520116  
         C9        1.0000    0.79910   0.21720   0.62480   Biso      1.000     C          0.519169  
         C10       1.0000    0.60000   0.27020   0.11360   Biso      1.000     C          0.49993999999999994           
         C11       1.0000    0.50720   0.37660   0.10900   Biso      1.000     C          0.502058  
         C12       1.0000    0.20090   0.78280   0.37520   Biso      1.000     C          0.519169  
         C13       1.0000    0.15000   0.59540   0.35460   Biso      1.000     C          0.506343  
         C14       1.0000    0.01360   0.84340   0.11360   Biso      1.000     C          0.498749  
         C15       1.0000    0.10180   0.73240   0.10900   Biso      1.000     C          0.5035109999999999  
         C16       1.0000    0.70460   0.75920   0.35460   Biso      1.000     C          0.504279  
         O1        1.0000    0.79010   0.24030   0.93020   Biso      1.000     O          -0.512012           
         O2        1.0000    0.94180   0.03690   0.91860   Biso      1.000     O          -0.5888939999999999           
         O3        1.0000    0.10180   0.20180   0.84680   Biso      1.000     O          -0.614577           
         O4        1.0000    0.95550   0.38160   0.84940   Biso      1.000     O          -0.612853           
         O5        1.0000    0.99650   0.49710   0.69940   Biso      1.000     O          -0.578342           
         O6        1.0000    0.90520   0.18490   0.67100   Biso      1.000     O          -0.6230859999999999           
         O7        1.0000    0.66550   0.11320   0.56860   Biso      1.000     O          -0.595598           
         O8        1.0000    0.47680   0.88170   0.91860   Biso      1.000     O          -0.589241           
         O9        1.0000    0.64010   0.68990   0.93020   Biso      1.000     O          -0.511576           
         O10       1.0000    0.24500   0.64500   0.84680   Biso      1.000     O          -0.614442           
         O11       1.0000    0.39390   0.46780   0.84940   Biso      1.000     O          -0.612291           
         O12       1.0000    0.26580   0.48610   0.67100   Biso      1.000     O          -0.6235189999999999           
         O13       1.0000    0.20290   0.20230   0.69940   Biso      1.000     O          -0.57718  
         O14       1.0000    0.64710   0.84140   0.39220   Biso      1.000     O          -0.54915  
         O15       1.0000    0.75490   0.44920   0.60780   Biso      1.000     O          -0.550022           
         O16       1.0000    0.59690   0.54460   0.43140   Biso      1.000     O          -0.5964   
         O17       1.0000    0.00350   0.50290   0.30060   Biso      1.000     O          -0.578342           
         O18       1.0000    0.79710   0.79770   0.30060   Biso      1.000     O          -0.57718  
         O19       1.0000    0.20990   0.75970   0.06980   Biso      1.000     O          -0.512012           
         O20       1.0000    0.05820   0.96310   0.08140   Biso      1.000     O          -0.5888939999999999           
         O21       1.0000    0.89820   0.79820   0.15320   Biso      1.000     O          -0.614577           
         O22       1.0000    0.04450   0.61840   0.15060   Biso      1.000     O          -0.612853           
         O23       1.0000    0.73420   0.51390   0.32900   Biso      1.000     O          -0.6235189999999999           
         O24       1.0000    0.09480   0.81510   0.32900   Biso      1.000     O          -0.623085           
         O25       1.0000    0.40310   0.45540   0.56860   Biso      1.000     O          -0.5964   
         O26       1.0000    0.24510   0.55080   0.39220   Biso      1.000     O          -0.550022           
         O27       1.0000    0.35990   0.31010   0.06980   Biso      1.000     O          -0.511576           
         O28       1.0000    0.52320   0.11830   0.08140   Biso      1.000     O          -0.589241           
         O29       1.0000    0.75500   0.35500   0.15320   Biso      1.000     O          -0.614442           
         O30       1.0000    0.60610   0.53220   0.15060   Biso      1.000     O          -0.612291           
         O31       1.0000    0.33450   0.88680   0.43140   Biso      1.000     O          -0.595598           
         O32       1.0000    0.35290   0.15860   0.60780   Biso      1.000     O          -0.54915  
         Zr1       1.0000    0.13452   0.38452   0.76904   Biso      1.000     Zr          2.196603  
         Zr2       1.0000    0.86548   0.61548   0.23096   Biso      1.000     Zr          2.196602 