
##########################################################################
#               Crystallographic Information Format file
#               Produced by PyCifRW module
#
#  This is a CIF file.  CIF has been adopted by the International
#  Union of Crystallography as the standard for data archiving and
#  transmission.
#
#  For information on this file format, follow the CIF links at
#  http://www.iucr.org
##########################################################################

data_image0

_cell_length_a                          9.3322
_cell_length_b                          10.795
_cell_length_c                          21.6181
_cell_angle_alpha                       91.584
_cell_angle_beta                        90
_cell_angle_gamma                       90
_symmetry_space_group_name_H-M          'P 1'
_symmetry_int_tables_number             1
loop_
  _symmetry_equiv_pos_as_xyz
         'x, y, z' 
loop_
  _atom_site_label
  _atom_site_occupancy
  _atom_site_fract_x
  _atom_site_fract_y
  _atom_site_fract_z
  _atom_site_thermal_displace_type
  _atom_site_B_iso_or_equiv
  _atom_site_type_symbol
  _atom_site_charge
         C1        1.0000    0.86880   0.42770   0.04925   Biso      1.000     C          0.208571  
         C2        1.0000    0.64750   0.11040   0.62474   Biso      1.000     C          0.60907   
         C3        1.0000    0.76180   0.99380   0.46568   Biso      1.000     C          -0.163989           
         C4        1.0000    0.68950   0.00580   0.52186   Biso      1.000     C          -0.096368           
         C5        1.0000    0.72510   0.09920   0.56390   Biso      1.000     C          -0.050448           
         C6        1.0000    0.83280   0.18210   0.54957   Biso      1.000     C          -0.09747  
         C7        1.0000    0.90390   0.17190   0.49315   Biso      1.000     C          -0.152262           
         C8        1.0000    0.86770   0.07690   0.45058   Biso      1.000     C          0.208896  
         C9        1.0000    0.94500   0.06600   0.38941   Biso      1.000     C          -0.578999           
         C10       1.0000    0.64120   0.39030   0.87756   Biso      1.000     C          0.603109  
         C11       1.0000    0.76300   0.51070   0.03441   Biso      1.000     C          -0.163972           
         C12       1.0000    0.68780   0.49860   0.97921   Biso      1.000     C          -0.094756           
         C13       1.0000    0.72090   0.40290   0.93739   Biso      1.000     C          -0.052209           
         C14       1.0000    0.82820   0.31980   0.95145   Biso      1.000     C          -0.094042           
         C15       1.0000    0.55050   0.93930   0.10986   Biso      1.000     C          -0.576309           
         C16       1.0000    0.90120   0.33050   0.00707   Biso      1.000     C          -0.152802           
         C17       1.0000    0.14750   0.38960   0.37526   Biso      1.000     C          0.609069  
         C18       1.0000    0.26180   0.50620   0.53432   Biso      1.000     C          -0.163989           
         C19       1.0000    0.18950   0.49420   0.47814   Biso      1.000     C          -0.096368           
         C20       1.0000    0.22510   0.40080   0.43610   Biso      1.000     C          -0.050448           
         C21       1.0000    0.33280   0.31790   0.45043   Biso      1.000     C          -0.09747  
         C22       1.0000    0.40390   0.32810   0.50685   Biso      1.000     C          -0.152262           
         C23       1.0000    0.36770   0.42310   0.54942   Biso      1.000     C          0.208896  
         C24       1.0000    0.44500   0.43400   0.61059   Biso      1.000     C          -0.578999           
         C25       1.0000    0.14120   0.10970   0.12244   Biso      1.000     C          0.603109  
         C26       1.0000    0.26300   0.98930   0.96559   Biso      1.000     C          -0.163976           
         C27       1.0000    0.18780   0.00140   0.02079   Biso      1.000     C          -0.094755           
         C28       1.0000    0.22090   0.09710   0.06261   Biso      1.000     C          -0.052208           
         C29       1.0000    0.32820   0.18020   0.04855   Biso      1.000     C          -0.094042           
         C30       1.0000    0.94950   0.43930   0.10986   Biso      1.000     C          -0.576309           
         C31       1.0000    0.36880   0.07230   0.95075   Biso      1.000     C          0.208575  
         C32       1.0000    0.63120   0.92770   0.04925   Biso      1.000     C          0.208571  
         C33       1.0000    0.67180   0.81980   0.95145   Biso      1.000     C          -0.094045           
         C34       1.0000    0.35250   0.88960   0.37526   Biso      1.000     C          0.609069  
         C35       1.0000    0.23820   0.00620   0.53432   Biso      1.000     C          -0.163989           
         C36       1.0000    0.31050   0.99420   0.47814   Biso      1.000     C          -0.096368           
         C37       1.0000    0.27490   0.90080   0.43610   Biso      1.000     C          -0.050448           
         C38       1.0000    0.16720   0.81790   0.45043   Biso      1.000     C          -0.09747  
         C39       1.0000    0.09610   0.82810   0.50685   Biso      1.000     C          -0.152262           
         C40       1.0000    0.13230   0.92310   0.54942   Biso      1.000     C          0.208896  
         C41       1.0000    0.05500   0.93400   0.61059   Biso      1.000     C          -0.578999           
         C42       1.0000    0.35880   0.60970   0.12244   Biso      1.000     C          0.603109  
         C43       1.0000    0.23700   0.48930   0.96559   Biso      1.000     C          -0.163976           
         C44       1.0000    0.31220   0.50140   0.02079   Biso      1.000     C          -0.094755           
         C45       1.0000    0.27910   0.59710   0.06261   Biso      1.000     C          -0.052208           
         C46       1.0000    0.17180   0.68020   0.04855   Biso      1.000     C          -0.094042           
         C47       1.0000    0.59880   0.83050   0.00707   Biso      1.000     C          -0.152802           
         C48       1.0000    0.09880   0.66950   0.99293   Biso      1.000     C          -0.152803           
         C49       1.0000    0.05050   0.56070   0.89014   Biso      1.000     C          -0.576309           
         C50       1.0000    0.85250   0.61040   0.62474   Biso      1.000     C          0.609069  
         C51       1.0000    0.73820   0.49380   0.46568   Biso      1.000     C          -0.163989           
         C52       1.0000    0.81050   0.50580   0.52186   Biso      1.000     C          -0.096368           
         C53       1.0000    0.77490   0.59920   0.56390   Biso      1.000     C          -0.050448           
         C54       1.0000    0.66720   0.68210   0.54957   Biso      1.000     C          -0.09747  
         C55       1.0000    0.59610   0.67190   0.49315   Biso      1.000     C          -0.152262           
         C56       1.0000    0.63230   0.57690   0.45058   Biso      1.000     C          0.208896  
         C57       1.0000    0.55500   0.56600   0.38941   Biso      1.000     C          -0.578999           
         C58       1.0000    0.85880   0.89030   0.87756   Biso      1.000     C          0.603108  
         C59       1.0000    0.73700   0.01070   0.03441   Biso      1.000     C          -0.163972           
         C60       1.0000    0.81220   0.99860   0.97921   Biso      1.000     C          -0.094756           
         C61       1.0000    0.77910   0.90290   0.93739   Biso      1.000     C          -0.052205           
         C62       1.0000    0.13120   0.57230   0.95075   Biso      1.000     C          0.208575  
         C63       1.0000    0.44950   0.06070   0.89014   Biso      1.000     C          -0.576309           
         C64       1.0000    0.40120   0.16950   0.99293   Biso      1.000     C          -0.152802           
         H1        1.0000    0.02440   0.77170   0.51630   Biso      1.000     H          0.119395  
         H2        1.0000    0.85750   0.24490   0.57790   Biso      1.000     H          0.118707  
         H3        1.0000    0.97560   0.22830   0.48370   Biso      1.000     H          0.119395  
         H4        1.0000    0.04040   0.10040   0.39450   Biso      1.000     H          0.178771  
         H5        1.0000    0.95540   0.97880   0.37820   Biso      1.000     H          0.184404  
         H6        1.0000    0.74150   0.57590   0.06190   Biso      1.000     H          0.121263  
         H7        1.0000    0.61540   0.55460   0.97020   Biso      1.000     H          0.113452  
         H8        1.0000    0.85150   0.25630   0.92330   Biso      1.000     H          0.117849  
         H9        1.0000    0.97180   0.27330   0.01650   Biso      1.000     H          0.119321  
         H10       1.0000    0.04460   0.40460   0.10410   Biso      1.000     H          0.179861  
         H11       1.0000    0.96060   0.52650   0.12080   Biso      1.000     H          0.183203  
         H12       1.0000    0.61660   0.95050   0.53110   Biso      1.000     H          0.11202   
         H13       1.0000    0.23860   0.57080   0.56190   Biso      1.000     H          0.122905  
         H14       1.0000    0.35750   0.25510   0.42210   Biso      1.000     H          0.118707  
         H15       1.0000    0.47560   0.27170   0.51630   Biso      1.000     H          0.119395  
         H16       1.0000    0.54040   0.39960   0.60550   Biso      1.000     H          0.178771  
         H17       1.0000    0.45540   0.52120   0.62180   Biso      1.000     H          0.184404  
         H18       1.0000    0.24150   0.92410   0.93810   Biso      1.000     H          0.121263  
         H19       1.0000    0.11540   0.94540   0.02980   Biso      1.000     H          0.113452  
         H20       1.0000    0.35150   0.24370   0.07670   Biso      1.000     H          0.117849  
         H21       1.0000    0.47180   0.22670   0.98350   Biso      1.000     H          0.119321  
         H22       1.0000    0.54460   0.09540   0.89590   Biso      1.000     H          0.179861  
         H23       1.0000    0.46060   0.97350   0.87920   Biso      1.000     H          0.183204  
         H24       1.0000    0.95960   0.89960   0.60550   Biso      1.000     H          0.178771  
         H25       1.0000    0.73860   0.92920   0.43810   Biso      1.000     H          0.122905  
         H26       1.0000    0.11660   0.54950   0.46890   Biso      1.000     H          0.11202   
         H27       1.0000    0.45540   0.90460   0.10410   Biso      1.000     H          0.179861  
         H28       1.0000    0.14250   0.75510   0.42210   Biso      1.000     H          0.118707  
         H29       1.0000    0.38340   0.04950   0.46890   Biso      1.000     H          0.11202   
         H30       1.0000    0.26140   0.07080   0.56190   Biso      1.000     H          0.122905  
         H31       1.0000    0.04460   0.02120   0.62180   Biso      1.000     H          0.184404  
         H32       1.0000    0.25850   0.42410   0.93810   Biso      1.000     H          0.121263  
         H33       1.0000    0.38460   0.44540   0.02980   Biso      1.000     H          0.113452  
         H34       1.0000    0.14850   0.74370   0.07670   Biso      1.000     H          0.11785   
         H35       1.0000    0.02820   0.72670   0.98350   Biso      1.000     H          0.119322  
         H36       1.0000    0.53940   0.02650   0.12080   Biso      1.000     H          0.183204  
         H37       1.0000    0.03940   0.47350   0.87920   Biso      1.000     H          0.183204  
         H38       1.0000    0.95540   0.59540   0.89590   Biso      1.000     H          0.179861  
         H39       1.0000    0.88340   0.45050   0.53110   Biso      1.000     H          0.11202   
         H40       1.0000    0.64250   0.74490   0.57790   Biso      1.000     H          0.118707  
         H41       1.0000    0.52440   0.72830   0.48370   Biso      1.000     H          0.119395  
         H42       1.0000    0.45960   0.60040   0.39450   Biso      1.000     H          0.178771  
         H43       1.0000    0.54460   0.47880   0.37820   Biso      1.000     H          0.184404  
         H44       1.0000    0.75850   0.07590   0.06190   Biso      1.000     H          0.121263  
         H45       1.0000    0.88460   0.05460   0.97020   Biso      1.000     H          0.113452  
         H46       1.0000    0.64850   0.75630   0.92330   Biso      1.000     H          0.11785   
         H47       1.0000    0.52820   0.77330   0.01650   Biso      1.000     H          0.119321  
         H48       1.0000    0.76140   0.42920   0.43810   Biso      1.000     H          0.122905  
         O1        1.0000    0.28520   0.92000   0.68802   Biso      1.000     O          -0.773005           
         O2        1.0000    0.44400   0.52160   0.13614   Biso      1.000     O          -0.561051           
         O3        1.0000    0.03850   0.87480   0.72872   Biso      1.000     O          -0.819411           
         O4        1.0000    0.16630   0.72280   0.65530   Biso      1.000     O          -0.7788   
         O5        1.0000    0.83370   0.27720   0.34470   Biso      1.000     O          -0.7788   
         O6        1.0000    0.83180   0.23030   0.15433   Biso      1.000     O          -0.774037           
         O7        1.0000    0.71480   0.08000   0.31198   Biso      1.000     O          -0.773004           
         O8        1.0000    0.55600   0.47840   0.86386   Biso      1.000     O          -0.561051           
         O9        1.0000    0.66120   0.29530   0.84413   Biso      1.000     O          -0.575252           
         O10       1.0000    0.33880   0.70470   0.15587   Biso      1.000     O          -0.575252           
         O11       1.0000    0.72660   0.43060   0.19127   Biso      1.000     O          -0.776086           
         O12       1.0000    0.96150   0.12520   0.27128   Biso      1.000     O          -0.819412           
         O13       1.0000    0.16820   0.76970   0.84567   Biso      1.000     O          -0.774037           
         O14       1.0000    0.77340   0.93060   0.19127   Biso      1.000     O          -0.776086           
         O15       1.0000    0.02910   0.62450   0.77172   Biso      1.000     O          -0.820361           
         O16       1.0000    0.83110   0.70480   0.65840   Biso      1.000     O          -0.577456           
         O17       1.0000    0.93560   0.52190   0.63862   Biso      1.000     O          -0.559501           
         O18       1.0000    0.66630   0.77720   0.34470   Biso      1.000     O          -0.778799           
         O19       1.0000    0.53850   0.62520   0.27128   Biso      1.000     O          -0.819411           
         O20       1.0000    0.78520   0.58000   0.31198   Biso      1.000     O          -0.773005           
         O21       1.0000    0.94400   0.97840   0.86386   Biso      1.000     O          -0.561051           
         O22       1.0000    0.83880   0.79530   0.84413   Biso      1.000     O          -0.575251           
         O23       1.0000    0.66820   0.73030   0.15433   Biso      1.000     O          -0.774037           
         O24       1.0000    0.52910   0.87550   0.22828   Biso      1.000     O          -0.82036  
         O25       1.0000    0.66890   0.20480   0.65840   Biso      1.000     O          -0.577456           
         O26       1.0000    0.97090   0.37550   0.22828   Biso      1.000     O          -0.820361           
         O27       1.0000    0.56440   0.02190   0.63862   Biso      1.000     O          -0.559502           
         O28       1.0000    0.27340   0.56940   0.80873   Biso      1.000     O          -0.776086           
         O29       1.0000    0.16890   0.29520   0.34160   Biso      1.000     O          -0.577456           
         O30       1.0000    0.33110   0.79520   0.34160   Biso      1.000     O          -0.577456           
         O31       1.0000    0.33370   0.22280   0.65530   Biso      1.000     O          -0.7788   
         O32       1.0000    0.46150   0.37480   0.72872   Biso      1.000     O          -0.81941  
         O33       1.0000    0.21480   0.42000   0.68802   Biso      1.000     O          -0.773005           
         O34       1.0000    0.05600   0.02160   0.13614   Biso      1.000     O          -0.561051           
         O35       1.0000    0.16120   0.20470   0.15587   Biso      1.000     O          -0.575252           
         O36       1.0000    0.33180   0.26970   0.84567   Biso      1.000     O          -0.774037           
         O37       1.0000    0.22660   0.06940   0.80873   Biso      1.000     O          -0.776086           
         O38       1.0000    0.47090   0.12450   0.77172   Biso      1.000     O          -0.820361           
         O39       1.0000    0.43560   0.97810   0.36138   Biso      1.000     O          -0.5595   
         O40       1.0000    0.06440   0.47810   0.36138   Biso      1.000     O          -0.559501           
         P1        1.0000    0.36386   0.13669   0.82693   Biso      1.000     P          1.411121  
         P2        1.0000    0.35823   0.35804   0.67300   Biso      1.000     P          1.415032  
         P3        1.0000    0.85823   0.14196   0.32700   Biso      1.000     P          1.415033  
         P4        1.0000    0.86386   0.36331   0.17307   Biso      1.000     P          1.41112   
         P5        1.0000    0.64177   0.64196   0.32700   Biso      1.000     P          1.415032  
         P6        1.0000    0.13614   0.63669   0.82693   Biso      1.000     P          1.411121  
         P7        1.0000    0.14177   0.85804   0.67300   Biso      1.000     P          1.415032  
         P8        1.0000    0.63614   0.86331   0.17307   Biso      1.000     P          1.411121  
         Zn1       1.0000    0.10472   0.56806   0.68954   Biso      1.000     Zn          1.050936  
         Zn2       1.0000    0.39038   0.42585   0.81213   Biso      1.000     Zn          1.04881   
         Zn3       1.0000    0.86628   0.75393   0.75007   Biso      1.000     Zn          1.061888  
         Zn4       1.0000    0.60472   0.93194   0.31046   Biso      1.000     Zn          1.050932  
         Zn5       1.0000    0.89038   0.07415   0.18787   Biso      1.000     Zn          1.04881   
         Zn6       1.0000    0.36628   0.74607   0.24993   Biso      1.000     Zn          1.061887  
         Zn7       1.0000    0.89528   0.43194   0.31046   Biso      1.000     Zn          1.050936  
         Zn8       1.0000    0.60962   0.57415   0.18787   Biso      1.000     Zn          1.048811  
         Zn9       1.0000    0.13372   0.24607   0.24993   Biso      1.000     Zn          1.061888  
         Zn10      1.0000    0.39528   0.06806   0.68954   Biso      1.000     Zn          1.050937  
         Zn11      1.0000    0.10962   0.92585   0.81213   Biso      1.000     Zn          1.04881   
         Zn12      1.0000    0.63372   0.25393   0.75007   Biso      1.000     Zn          1.061887 