
##########################################################################
#               Crystallographic Information Format file
#               Produced by PyCifRW module
#
#  This is a CIF file.  CIF has been adopted by the International
#  Union of Crystallography as the standard for data archiving and
#  transmission.
#
#  For information on this file format, follow the CIF links at
#  http://www.iucr.org
##########################################################################

data_image0

_cell_length_a                          13.4801
_cell_length_b                          13.4801
_cell_length_c                          24.582
_cell_angle_alpha                       90
_cell_angle_beta                        90
_cell_angle_gamma                       90
_symmetry_space_group_name_H-M          'P 1'
_symmetry_int_tables_number             1
loop_
  _symmetry_equiv_pos_as_xyz
         'x, y, z' 
loop_
  _atom_site_label
  _atom_site_occupancy
  _atom_site_fract_x
  _atom_site_fract_y
  _atom_site_fract_z
  _atom_site_thermal_displace_type
  _atom_site_B_iso_or_equiv
  _atom_site_type_symbol
  _atom_site_charge
         C1        1.0000    0.00000   0.50000   0.75000   Biso      1.000     C          -0.02966  
         C2        1.0000    0.65100   0.17040   0.65640   Biso      1.000     C          -0.091537           
         C3        1.0000    0.62710   0.10320   0.69700   Biso      1.000     C          -0.155415           
         C4        1.0000    0.52970   0.08390   0.71054   Biso      1.000     C          0.087368  
         C5        1.0000    0.15100   0.67040   0.84360   Biso      1.000     C          -0.091537           
         C6        1.0000    0.45580   0.13370   0.68170   Biso      1.000     C          -0.146785           
         C7        1.0000    0.47970   0.20160   0.64100   Biso      1.000     C          -0.098912           
         C8        1.0000    0.57780   0.21930   0.62790   Biso      1.000     C          -0.035966           
         C9        1.0000    0.60560   0.28810   0.58212   Biso      1.000     C          0.593554  
         C10       1.0000    0.60560   0.28810   0.41788   Biso      1.000     C          0.593555  
         C11       1.0000    0.57780   0.21930   0.37210   Biso      1.000     C          -0.03597  
         C12       1.0000    0.47970   0.20160   0.35900   Biso      1.000     C          -0.09891  
         C13       1.0000    0.15100   0.67040   0.15640   Biso      1.000     C          -0.091537           
         C14       1.0000    0.12710   0.60320   0.19700   Biso      1.000     C          -0.155415           
         C15       1.0000    0.02970   0.58390   0.21054   Biso      1.000     C          0.087368  
         C16       1.0000    0.45580   0.13370   0.31830   Biso      1.000     C          -0.146786           
         C17       1.0000    0.95580   0.63370   0.18170   Biso      1.000     C          -0.146785           
         C18       1.0000    0.97970   0.70160   0.14100   Biso      1.000     C          -0.098912           
         C19       1.0000    0.07780   0.71930   0.12790   Biso      1.000     C          -0.035966           
         C20       1.0000    0.10560   0.78810   0.08212   Biso      1.000     C          0.593554  
         C21       1.0000    0.52970   0.08390   0.28946   Biso      1.000     C          0.087367  
         C22       1.0000    0.62710   0.10320   0.30300   Biso      1.000     C          -0.155414           
         C23       1.0000    0.34900   0.82960   0.65640   Biso      1.000     C          -0.091537           
         C24       1.0000    0.65100   0.17040   0.34360   Biso      1.000     C          -0.091535           
         C25       1.0000    0.37290   0.89680   0.69700   Biso      1.000     C          -0.155415           
         C26       1.0000    0.47030   0.91610   0.71054   Biso      1.000     C          0.087368  
         C27       1.0000    0.78070   0.57780   0.37210   Biso      1.000     C          -0.03597  
         C28       1.0000    0.89440   0.21190   0.91788   Biso      1.000     C          0.593555  
         C29       1.0000    0.52030   0.79840   0.64100   Biso      1.000     C          -0.098912           
         C30       1.0000    0.42220   0.78070   0.62790   Biso      1.000     C          -0.035966           
         C31       1.0000    0.12710   0.60320   0.80300   Biso      1.000     C          -0.155415           
         C32       1.0000    0.39440   0.71190   0.58212   Biso      1.000     C          0.593554  
         C33       1.0000    0.02970   0.58390   0.78946   Biso      1.000     C          0.087368  
         C34       1.0000    0.71930   0.92220   0.87210   Biso      1.000     C          -0.03597  
         C35       1.0000    0.32960   0.15100   0.84360   Biso      1.000     C          -0.091537           
         C36       1.0000    0.79840   0.47970   0.35900   Biso      1.000     C          -0.09891  
         C37       1.0000    0.39680   0.12710   0.80300   Biso      1.000     C          -0.155415           
         C38       1.0000    0.41610   0.02970   0.78946   Biso      1.000     C          0.087368  
         C39       1.0000    0.36630   0.95580   0.81830   Biso      1.000     C          -0.146785           
         C40       1.0000    0.86630   0.45580   0.31830   Biso      1.000     C          -0.146786           
         C41       1.0000    0.29840   0.97970   0.85900   Biso      1.000     C          -0.098912           
         C42       1.0000    0.28070   0.07780   0.87210   Biso      1.000     C          -0.035966           
         C43       1.0000    0.21190   0.10560   0.91788   Biso      1.000     C          0.593554  
         C44       1.0000    0.91610   0.52970   0.28946   Biso      1.000     C          0.087367  
         C45       1.0000    0.89680   0.62710   0.30300   Biso      1.000     C          -0.155414           
         C46       1.0000    0.17040   0.34900   0.34360   Biso      1.000     C          -0.091537           
         C47       1.0000    0.10320   0.37290   0.30300   Biso      1.000     C          -0.155415           
         C48       1.0000    0.08390   0.47030   0.28946   Biso      1.000     C          0.087368  
         C49       1.0000    0.82960   0.65100   0.34360   Biso      1.000     C          -0.091535           
         C50       1.0000    0.13370   0.54420   0.31830   Biso      1.000     C          -0.146785           
         C51       1.0000    0.20160   0.52030   0.35900   Biso      1.000     C          -0.098912           
         C52       1.0000    0.21930   0.42220   0.37210   Biso      1.000     C          -0.035966           
         C53       1.0000    0.28810   0.39440   0.41788   Biso      1.000     C          0.593554  
         C54       1.0000    0.10560   0.78810   0.91788   Biso      1.000     C          0.593554  
         C55       1.0000    0.07780   0.71930   0.87210   Biso      1.000     C          -0.035967           
         C56       1.0000    0.97970   0.70160   0.85900   Biso      1.000     C          -0.09891  
         C57       1.0000    0.67040   0.84900   0.84360   Biso      1.000     C          -0.091535           
         C58       1.0000    0.60320   0.87290   0.80300   Biso      1.000     C          -0.155415           
         C59       1.0000    0.58390   0.97030   0.78946   Biso      1.000     C          0.087369  
         C60       1.0000    0.95580   0.63370   0.81830   Biso      1.000     C          -0.146786           
         C61       1.0000    0.63370   0.04420   0.81830   Biso      1.000     C          -0.146786           
         C62       1.0000    0.50000   0.00000   0.75000   Biso      1.000     C          -0.02966  
         C63       1.0000    0.70160   0.02030   0.85900   Biso      1.000     C          -0.09891  
         C64       1.0000    0.78810   0.89440   0.91788   Biso      1.000     C          0.593555  
         C65       1.0000    0.92220   0.28070   0.87210   Biso      1.000     C          -0.03597  
         C66       1.0000    0.54420   0.86630   0.68170   Biso      1.000     C          -0.146786           
         C67       1.0000    0.63370   0.04420   0.18170   Biso      1.000     C          -0.146785           
         C68       1.0000    0.60320   0.87290   0.19700   Biso      1.000     C          -0.155415           
         C69       1.0000    0.58390   0.97030   0.21054   Biso      1.000     C          0.087368  
         C70       1.0000    0.47030   0.91610   0.28946   Biso      1.000     C          0.087367  
         C71       1.0000    0.02030   0.29840   0.85900   Biso      1.000     C          -0.09891  
         C72       1.0000    0.37290   0.89680   0.30300   Biso      1.000     C          -0.155413           
         C73       1.0000    0.70160   0.02030   0.14100   Biso      1.000     C          -0.098911           
         C74       1.0000    0.71930   0.92220   0.12790   Biso      1.000     C          -0.035968           
         C75       1.0000    0.78810   0.89440   0.08212   Biso      1.000     C          0.593554  
         C76       1.0000    0.34900   0.82960   0.34360   Biso      1.000     C          -0.091537           
         C77       1.0000    0.82960   0.65100   0.65640   Biso      1.000     C          -0.091537           
         C78       1.0000    0.89680   0.62710   0.69700   Biso      1.000     C          -0.155415           
         C79       1.0000    0.91610   0.52970   0.71054   Biso      1.000     C          0.087368  
         C80       1.0000    0.86630   0.45580   0.68170   Biso      1.000     C          -0.146785           
         C81       1.0000    0.79840   0.47970   0.64100   Biso      1.000     C          -0.098912           
         C82       1.0000    0.78070   0.57780   0.62790   Biso      1.000     C          -0.035966           
         C83       1.0000    0.71190   0.60560   0.58212   Biso      1.000     C          0.593554  
         C84       1.0000    0.32960   0.15100   0.15640   Biso      1.000     C          -0.091537           
         C85       1.0000    0.39680   0.12710   0.19700   Biso      1.000     C          -0.155415           
         C86       1.0000    0.41610   0.02970   0.21054   Biso      1.000     C          0.087368  
         C87       1.0000    0.36630   0.95580   0.18170   Biso      1.000     C          -0.146785           
         C88       1.0000    0.50000   0.00000   0.25000   Biso      1.000     C          -0.02966  
         C89       1.0000    0.29840   0.97970   0.14100   Biso      1.000     C          -0.098912           
         C90       1.0000    0.28070   0.07780   0.12790   Biso      1.000     C          -0.035966           
         C91       1.0000    0.21190   0.10560   0.08212   Biso      1.000     C          0.593554  
         C92       1.0000    0.00000   0.50000   0.25000   Biso      1.000     C          -0.02966  
         C93       1.0000    0.67040   0.84900   0.15640   Biso      1.000     C          -0.091535           
         C94       1.0000    0.54420   0.86630   0.31830   Biso      1.000     C          -0.146786           
         C95       1.0000    0.71190   0.60560   0.41788   Biso      1.000     C          0.593555  
         C96       1.0000    0.87290   0.39680   0.80300   Biso      1.000     C          -0.155415           
         C97       1.0000    0.84900   0.32960   0.84360   Biso      1.000     C          -0.091535           
         C98       1.0000    0.89440   0.21190   0.08212   Biso      1.000     C          0.593554  
         C99       1.0000    0.97030   0.41610   0.78946   Biso      1.000     C          0.087369  
         C100      1.0000    0.17040   0.34900   0.65640   Biso      1.000     C          -0.091537           
         C101      1.0000    0.04420   0.36630   0.18170   Biso      1.000     C          -0.146785           
         C102      1.0000    0.02030   0.29840   0.14100   Biso      1.000     C          -0.098911           
         C103      1.0000    0.92220   0.28070   0.12790   Biso      1.000     C          -0.035968           
         C104      1.0000    0.10320   0.37290   0.69700   Biso      1.000     C          -0.155415           
         C105      1.0000    0.08390   0.47030   0.71054   Biso      1.000     C          0.087368  
         C106      1.0000    0.39440   0.71190   0.41788   Biso      1.000     C          0.593554  
         C107      1.0000    0.97030   0.41610   0.21054   Biso      1.000     C          0.087367  
         C108      1.0000    0.13370   0.54420   0.68170   Biso      1.000     C          -0.146785           
         C109      1.0000    0.42220   0.78070   0.37210   Biso      1.000     C          -0.035967           
         C110      1.0000    0.87290   0.39680   0.19700   Biso      1.000     C          -0.155414           
         C111      1.0000    0.20160   0.52030   0.64100   Biso      1.000     C          -0.098912           
         C112      1.0000    0.04420   0.36630   0.81830   Biso      1.000     C          -0.146786           
         C113      1.0000    0.21930   0.42220   0.62790   Biso      1.000     C          -0.035966           
         C114      1.0000    0.28810   0.39440   0.58212   Biso      1.000     C          0.593554  
         C115      1.0000    0.84900   0.32960   0.15640   Biso      1.000     C          -0.091535           
         C116      1.0000    0.52030   0.79840   0.35900   Biso      1.000     C          -0.09891  
         Cd1       1.0000    0.90878   0.82187   0.00000   Biso      1.000     Cd          1.06398   
         Cd2       1.0000    0.17813   0.90878   0.00000   Biso      1.000     Cd          1.06398   
         Cd3       1.0000    0.40878   0.32187   0.50000   Biso      1.000     Cd          1.06398   
         Cd4       1.0000    0.67813   0.40878   0.50000   Biso      1.000     Cd          1.06398   
         Cd5       1.0000    0.09122   0.17813   0.00000   Biso      1.000     Cd          1.06398   
         Cd6       1.0000    0.82187   0.09122   0.00000   Biso      1.000     Cd          1.06398   
         Cd7       1.0000    0.59122   0.67813   0.50000   Biso      1.000     Cd          1.06398   
         Cd8       1.0000    0.32187   0.59122   0.50000   Biso      1.000     Cd          1.06398   
         H1        1.0000    0.87880   0.38880   0.31020   Biso      1.000     H          0.115978  
         H2        1.0000    0.71790   0.18290   0.35180   Biso      1.000     H          0.120219  
         H3        1.0000    0.11120   0.37880   0.81020   Biso      1.000     H          0.115978  
         H4        1.0000    0.76460   0.42900   0.37760   Biso      1.000     H          0.111753  
         H5        1.0000    0.57100   0.76460   0.37760   Biso      1.000     H          0.111753  
         H6        1.0000    0.67820   0.07010   0.28440   Biso      1.000     H          0.1137    
         H7        1.0000    0.81710   0.71790   0.35180   Biso      1.000     H          0.120219  
         H8        1.0000    0.82180   0.42990   0.78440   Biso      1.000     H          0.1137    
         H9        1.0000    0.92900   0.73540   0.87760   Biso      1.000     H          0.111753  
         H10       1.0000    0.28210   0.81710   0.35180   Biso      1.000     H          0.120219  
         H11       1.0000    0.38880   0.12120   0.31020   Biso      1.000     H          0.115978  
         H12       1.0000    0.32180   0.92990   0.28440   Biso      1.000     H          0.1137    
         H13       1.0000    0.78210   0.31710   0.85180   Biso      1.000     H          0.120219  
         H14       1.0000    0.88880   0.62120   0.81020   Biso      1.000     H          0.115978  
         H15       1.0000    0.42900   0.23540   0.37760   Biso      1.000     H          0.111753  
         H16       1.0000    0.17820   0.57010   0.78440   Biso      1.000     H          0.1137    
         H17       1.0000    0.61120   0.87880   0.31020   Biso      1.000     H          0.115978  
         H18       1.0000    0.21790   0.68290   0.85180   Biso      1.000     H          0.120219  
         H19       1.0000    0.92990   0.67820   0.28440   Biso      1.000     H          0.1137    
         H20       1.0000    0.07100   0.26460   0.87760   Biso      1.000     H          0.111753  
         H21       1.0000    0.73540   0.07100   0.87760   Biso      1.000     H          0.111753  
         H22       1.0000    0.92990   0.67820   0.71560   Biso      1.000     H          0.1137    
         H23       1.0000    0.07010   0.32180   0.71560   Biso      1.000     H          0.1137    
         H24       1.0000    0.81710   0.71790   0.64820   Biso      1.000     H          0.120219  
         H25       1.0000    0.21790   0.68290   0.14820   Biso      1.000     H          0.120219  
         H26       1.0000    0.17820   0.57010   0.21560   Biso      1.000     H          0.1137    
         H27       1.0000    0.88880   0.62120   0.18980   Biso      1.000     H          0.115978  
         H28       1.0000    0.92900   0.73540   0.12240   Biso      1.000     H          0.111753  
         H29       1.0000    0.73540   0.07100   0.12240   Biso      1.000     H          0.111753  
         H30       1.0000    0.28210   0.81710   0.64820   Biso      1.000     H          0.120219  
         H31       1.0000    0.32180   0.92990   0.71560   Biso      1.000     H          0.1137    
         H32       1.0000    0.87880   0.38880   0.68980   Biso      1.000     H          0.115978  
         H33       1.0000    0.61120   0.87880   0.68980   Biso      1.000     H          0.115978  
         H34       1.0000    0.57010   0.82180   0.21560   Biso      1.000     H          0.1137    
         H35       1.0000    0.57100   0.76460   0.62240   Biso      1.000     H          0.111753  
         H36       1.0000    0.68290   0.78210   0.14820   Biso      1.000     H          0.120219  
         H37       1.0000    0.78210   0.31710   0.14820   Biso      1.000     H          0.120219  
         H38       1.0000    0.82180   0.42990   0.21560   Biso      1.000     H          0.1137    
         H39       1.0000    0.11120   0.37880   0.18980   Biso      1.000     H          0.115978  
         H40       1.0000    0.07100   0.26460   0.12240   Biso      1.000     H          0.111753  
         H41       1.0000    0.23540   0.57100   0.62240   Biso      1.000     H          0.111753  
         H42       1.0000    0.18290   0.28210   0.64820   Biso      1.000     H          0.120219  
         H43       1.0000    0.62120   0.11120   0.18980   Biso      1.000     H          0.115978  
         H44       1.0000    0.42900   0.23540   0.62240   Biso      1.000     H          0.111753  
         H45       1.0000    0.12120   0.61120   0.68980   Biso      1.000     H          0.115978  
         H46       1.0000    0.67820   0.07010   0.71560   Biso      1.000     H          0.1137    
         H47       1.0000    0.31710   0.21790   0.85180   Biso      1.000     H          0.120219  
         H48       1.0000    0.42990   0.17820   0.78440   Biso      1.000     H          0.1137    
         H49       1.0000    0.37880   0.88880   0.81020   Biso      1.000     H          0.115978  
         H50       1.0000    0.26460   0.92900   0.87760   Biso      1.000     H          0.111753  
         H51       1.0000    0.26460   0.92900   0.12240   Biso      1.000     H          0.111753  
         H52       1.0000    0.18290   0.28210   0.35180   Biso      1.000     H          0.120219  
         H53       1.0000    0.07010   0.32180   0.28440   Biso      1.000     H          0.1137    
         H54       1.0000    0.12120   0.61120   0.31020   Biso      1.000     H          0.115978  
         H55       1.0000    0.38880   0.12120   0.68980   Biso      1.000     H          0.115978  
         H56       1.0000    0.37880   0.88880   0.18980   Biso      1.000     H          0.115978  
         H57       1.0000    0.23540   0.57100   0.37760   Biso      1.000     H          0.111753  
         H58       1.0000    0.31710   0.21790   0.14820   Biso      1.000     H          0.120219  
         H59       1.0000    0.68290   0.78210   0.85180   Biso      1.000     H          0.120219  
         H60       1.0000    0.57010   0.82180   0.78440   Biso      1.000     H          0.1137    
         H61       1.0000    0.62120   0.11120   0.81020   Biso      1.000     H          0.115978  
         H62       1.0000    0.76460   0.42900   0.62240   Biso      1.000     H          0.111753  
         H63       1.0000    0.71790   0.18290   0.64820   Biso      1.000     H          0.120219  
         H64       1.0000    0.42990   0.17820   0.21560   Biso      1.000     H          0.1137    
         O1        1.0000    0.66130   0.53880   0.55893   Biso      1.000     O          -0.601264           
         O2        1.0000    0.79350   0.80550   0.06833   Biso      1.000     O          -0.537269           
         O3        1.0000    0.33870   0.46120   0.55893   Biso      1.000     O          -0.601264           
         O4        1.0000    0.20650   0.19450   0.06833   Biso      1.000     O          -0.537269           
         O5        1.0000    0.70650   0.69450   0.56833   Biso      1.000     O          -0.537269           
         O6        1.0000    0.83870   0.96120   0.05893   Biso      1.000     O          -0.601264           
         O7        1.0000    0.29350   0.30550   0.56833   Biso      1.000     O          -0.537269           
         O8        1.0000    0.66130   0.53880   0.44107   Biso      1.000     O          -0.601264           
         O9        1.0000    0.96120   0.16130   0.94107   Biso      1.000     O          -0.601264           
         O10       1.0000    0.46120   0.66130   0.44107   Biso      1.000     O          -0.601264           
         O11       1.0000    0.20650   0.19450   0.93167   Biso      1.000     O          -0.537269           
         O12       1.0000    0.16130   0.03880   0.94107   Biso      1.000     O          -0.601264           
         O13       1.0000    0.03880   0.83870   0.94107   Biso      1.000     O          -0.601264           
         O14       1.0000    0.19450   0.79350   0.93167   Biso      1.000     O          -0.537269           
         O15       1.0000    0.29350   0.30550   0.43167   Biso      1.000     O          -0.537269           
         O16       1.0000    0.33870   0.46120   0.44107   Biso      1.000     O          -0.601264           
         O17       1.0000    0.79350   0.80550   0.93167   Biso      1.000     O          -0.537269           
         O18       1.0000    0.83870   0.96120   0.94107   Biso      1.000     O          -0.601264           
         O19       1.0000    0.53880   0.33870   0.44107   Biso      1.000     O          -0.601264           
         O20       1.0000    0.30550   0.70650   0.43167   Biso      1.000     O          -0.537269           
         O21       1.0000    0.69450   0.29350   0.43167   Biso      1.000     O          -0.537269           
         O22       1.0000    0.53880   0.33870   0.55893   Biso      1.000     O          -0.601264           
         O23       1.0000    0.19450   0.79350   0.06833   Biso      1.000     O          -0.537269           
         O24       1.0000    0.03880   0.83870   0.05893   Biso      1.000     O          -0.601264           
         O25       1.0000    0.70650   0.69450   0.43167   Biso      1.000     O          -0.537269           
         O26       1.0000    0.80550   0.20650   0.93167   Biso      1.000     O          -0.537269           
         O27       1.0000    0.30550   0.70650   0.56833   Biso      1.000     O          -0.537269           
         O28       1.0000    0.46120   0.66130   0.55893   Biso      1.000     O          -0.601264           
         O29       1.0000    0.80550   0.20650   0.06833   Biso      1.000     O          -0.537269           
         O30       1.0000    0.96120   0.16130   0.05893   Biso      1.000     O          -0.601264           
         O31       1.0000    0.69450   0.29350   0.56833   Biso      1.000     O          -0.537269           
         O32       1.0000    0.16130   0.03880   0.05893   Biso      1.000     O          -0.601264 