
##########################################################################
#               Crystallographic Information Format file
#               Produced by PyCifRW module
#
#  This is a CIF file.  CIF has been adopted by the International
#  Union of Crystallography as the standard for data archiving and
#  transmission.
#
#  For information on this file format, follow the CIF links at
#  http://www.iucr.org
##########################################################################

data_image0

_cell_length_a                          9.8078
_cell_length_b                          13.1867
_cell_length_c                          16.7923
_cell_angle_alpha                       81.5216
_cell_angle_beta                        73.0204
_cell_angle_gamma                       68.1683
_symmetry_space_group_name_H-M          'P 1'
_symmetry_int_tables_number             1
loop_
  _symmetry_equiv_pos_as_xyz
         'x, y, z' 
loop_
  _atom_site_label
  _atom_site_occupancy
  _atom_site_fract_x
  _atom_site_fract_y
  _atom_site_fract_z
  _atom_site_thermal_displace_type
  _atom_site_B_iso_or_equiv
  _atom_site_type_symbol
  _atom_site_charge
         C1        1.0000    0.94550   0.49110   0.11250   Biso      1.000     C          0.186207  
         C2        1.0000    0.42040   0.25440   0.51900   Biso      1.000     C          0.614618  
         C3        1.0000    0.45090   0.99110   0.61250   Biso      1.000     C          0.184826  
         C4        1.0000    0.69000   0.23150   0.06530   Biso      1.000     C          0.623174  
         C5        1.0000    0.57450   0.22690   0.14430   Biso      1.000     C          -0.00866  
         C6        1.0000    0.47720   0.16720   0.17320   Biso      1.000     C          -0.009623           
         C7        1.0000    0.45200   0.07850   0.14290   Biso      1.000     C          0.605176  
         C8        1.0000    0.44070   0.27600   0.26680   Biso      1.000     C          0.183572  
         C9        1.0000    0.43170   0.39590   0.90570   Biso      1.000     C          0.592561  
         C10       1.0000    0.27230   0.41490   0.91130   Biso      1.000     C          0.004211  
         C11       1.0000    0.17740   0.35480   0.94120   Biso      1.000     C          -0.010896           
         C12       1.0000    0.47340   0.14520   0.55880   Biso      1.000     C          -0.010098           
         C13       1.0000    0.19380   0.24560   0.98100   Biso      1.000     C          0.612294  
         C14       1.0000    0.01320   0.73150   0.56530   Biso      1.000     C          0.624563  
         C15       1.0000    0.05430   0.72690   0.64430   Biso      1.000     C          -0.006945           
         C16       1.0000    0.18240   0.66720   0.67320   Biso      1.000     C          -0.010097           
         C17       1.0000    0.32660   0.57850   0.64290   Biso      1.000     C          0.602569  
         C18       1.0000    0.01650   0.77600   0.76680   Biso      1.000     C          0.184827  
         C19       1.0000    0.26670   0.89590   0.40570   Biso      1.000     C          0.586865  
         C20       1.0000    0.40150   0.91490   0.41130   Biso      1.000     C          0.003866  
         C21       1.0000    0.52660   0.85480   0.44120   Biso      1.000     C          -0.010097           
         C22       1.0000    0.57960   0.74560   0.48100   Biso      1.000     C          0.614619  
         C23       1.0000    0.54910   0.00890   0.38750   Biso      1.000     C          0.184825  
         C24       1.0000    0.05450   0.50890   0.88750   Biso      1.000     C          0.186207  
         C25       1.0000    0.59850   0.08510   0.58870   Biso      1.000     C          0.003867  
         C26       1.0000    0.73330   0.10410   0.59430   Biso      1.000     C          0.586865  
         C27       1.0000    0.98350   0.22400   0.23320   Biso      1.000     C          0.184827  
         C28       1.0000    0.30660   0.75000   0.25000   Biso      1.000     C          0.483473  
         C29       1.0000    0.46540   0.75000   0.25000   Biso      1.000     C          0.510066  
         C30       1.0000    0.69340   0.25000   0.75000   Biso      1.000     C          0.483473  
         C31       1.0000    0.53460   0.25000   0.75000   Biso      1.000     C          0.510066  
         C32       1.0000    0.80620   0.75440   0.01900   Biso      1.000     C          0.612294  
         C33       1.0000    0.82260   0.64520   0.05880   Biso      1.000     C          -0.010896           
         C34       1.0000    0.72770   0.58510   0.08870   Biso      1.000     C          0.004211  
         C35       1.0000    0.56830   0.60410   0.09430   Biso      1.000     C          0.592561  
         C36       1.0000    0.55930   0.72400   0.73320   Biso      1.000     C          0.183572  
         C37       1.0000    0.54800   0.92150   0.85710   Biso      1.000     C          0.605176  
         C38       1.0000    0.52280   0.83280   0.82680   Biso      1.000     C          -0.009623           
         C39       1.0000    0.42550   0.77310   0.85570   Biso      1.000     C          -0.008659           
         C40       1.0000    0.98680   0.26850   0.43470   Biso      1.000     C          0.624563  
         C41       1.0000    0.94570   0.27310   0.35570   Biso      1.000     C          -0.006946           
         C42       1.0000    0.81760   0.33280   0.32680   Biso      1.000     C          -0.010097           
         C43       1.0000    0.67340   0.42150   0.35710   Biso      1.000     C          0.602569  
         C44       1.0000    0.31000   0.76850   0.93470   Biso      1.000     C          0.623174  
         H1        1.0000    0.41200   0.93490   0.63030   Biso      1.000     H          0.096546  
         H2        1.0000    0.40230   0.31170   0.31670   Biso      1.000     H          0.094788  
         H3        1.0000    0.97720   0.56510   0.86970   Biso      1.000     H          0.095771  
         H4        1.0000    0.96930   0.81170   0.81670   Biso      1.000     H          0.094148  
         H5        1.0000    0.58800   0.06510   0.36970   Biso      1.000     H          0.096546  
         H6        1.0000    0.59770   0.68830   0.68330   Biso      1.000     H          0.094788  
         H7        1.0000    0.02280   0.43490   0.13030   Biso      1.000     H          0.095771  
         H8        1.0000    0.03070   0.18830   0.18330   Biso      1.000     H          0.094148  
         La1       1.0000    0.63209   0.38801   0.57397   Biso      1.000     La          1.965543  
         La2       1.0000    0.40593   0.88801   0.07397   Biso      1.000     La          1.964722  
         La3       1.0000    0.36791   0.61199   0.42603   Biso      1.000     La          1.965542  
         La4       1.0000    0.59407   0.11199   0.92603   Biso      1.000     La          1.964722  
         N1        1.0000    0.95140   0.79640   0.70400   Biso      1.000     N          -0.290378           
         N2        1.0000    0.80690   0.48800   0.12280   Biso      1.000     N          -0.319489           
         N3        1.0000    0.96120   0.58350   0.07390   Biso      1.000     N          -0.366931           
         N4        1.0000    0.45180   0.70360   0.79600   Biso      1.000     N          -0.288788           
         N5        1.0000    0.60670   0.79990   0.74770   Biso      1.000     N          -0.317696           
         N6        1.0000    0.41770   0.01200   0.37720   Biso      1.000     N          -0.320467           
         N7        1.0000    0.61860   0.91650   0.42610   Biso      1.000     N          -0.364055           
         N8        1.0000    0.15430   0.70010   0.75230   Biso      1.000     N          -0.317243           
         N9        1.0000    0.19310   0.51200   0.87720   Biso      1.000     N          -0.319488           
         N10       1.0000    0.03880   0.41650   0.92610   Biso      1.000     N          -0.366932           
         N11       1.0000    0.54820   0.29640   0.20400   Biso      1.000     N          -0.288787           
         N12       1.0000    0.39330   0.20010   0.25230   Biso      1.000     N          -0.317695           
         N13       1.0000    0.58230   0.98800   0.62280   Biso      1.000     N          -0.320468           
         N14       1.0000    0.38140   0.08350   0.57390   Biso      1.000     N          -0.364054           
         N15       1.0000    0.04860   0.20360   0.29600   Biso      1.000     N          -0.290377           
         N16       1.0000    0.84570   0.29990   0.24770   Biso      1.000     N          -0.317243           
         O1        1.0000    0.18220   0.96950   0.36570   Biso      1.000     O          -0.530902           
         O2        1.0000    0.23880   0.81180   0.43860   Biso      1.000     O          -0.639151           
         O3        1.0000    0.41740   0.54190   0.68890   Biso      1.000     O          -0.55628  
         O4        1.0000    0.36090   0.53600   0.57280   Biso      1.000     O          -0.67776  
         O5        1.0000    0.88550   0.80500   0.56080   Biso      1.000     O          -0.5219   
         O6        1.0000    0.09530   0.66650   0.50910   Biso      1.000     O          -0.596197           
         O7        1.0000    0.76146   0.18588   0.80380   Biso      1.000     O          -0.601546           
         O8        1.0000    0.47480   0.19600   0.80740   Biso      1.000     O          -0.570558           
         O9        1.0000    0.50870   0.68100   0.49260   Biso      1.000     O          -0.621729           
         O10       1.0000    0.70110   0.72120   0.50320   Biso      1.000     O          -0.570023           
         O11       1.0000    0.49130   0.31900   0.50740   Biso      1.000     O          -0.621729           
         O12       1.0000    0.24886   0.68588   0.30380   Biso      1.000     O          -0.601173           
         O13       1.0000    0.27090   0.83350   0.99090   Biso      1.000     O          -0.59533  
         O14       1.0000    0.07450   0.22120   0.00320   Biso      1.000     O          -0.569215           
         O15       1.0000    0.25130   0.69500   0.93920   Biso      1.000     O          -0.520999           
         O16       1.0000    0.46970   0.96400   0.92720   Biso      1.000     O          -0.67811  
         O17       1.0000    0.64820   0.95810   0.81110   Biso      1.000     O          -0.558641           
         O18       1.0000    0.51740   0.53050   0.13430   Biso      1.000     O          -0.533295           
         O19       1.0000    0.48920   0.68820   0.06140   Biso      1.000     O          -0.642336           
         O20       1.0000    0.68230   0.81900   0.00740   Biso      1.000     O          -0.619166           
         O21       1.0000    0.92550   0.77880   0.99680   Biso      1.000     O          -0.569215           
         O22       1.0000    0.52180   0.69600   0.30740   Biso      1.000     O          -0.571693           
         O23       1.0000    0.31770   0.18100   0.99260   Biso      1.000     O          -0.619166           
         O24       1.0000    0.23854   0.81412   0.19620   Biso      1.000     O          -0.601546           
         O25       1.0000    0.48260   0.46950   0.86570   Biso      1.000     O          -0.533295           
         O26       1.0000    0.52520   0.80400   0.19260   Biso      1.000     O          -0.570558           
         O27       1.0000    0.90470   0.33350   0.49090   Biso      1.000     O          -0.596197           
         O28       1.0000    0.11450   0.19500   0.43920   Biso      1.000     O          -0.521899           
         O29       1.0000    0.63910   0.46400   0.42720   Biso      1.000     O          -0.67776  
         O30       1.0000    0.51080   0.31180   0.93860   Biso      1.000     O          -0.642336           
         O31       1.0000    0.81780   0.03050   0.63430   Biso      1.000     O          -0.530902           
         O32       1.0000    0.76120   0.18820   0.56140   Biso      1.000     O          -0.639151           
         O33       1.0000    0.58260   0.45810   0.31110   Biso      1.000     O          -0.55628  
         O34       1.0000    0.29890   0.27880   0.49680   Biso      1.000     O          -0.570023           
         O35       1.0000    0.47820   0.30400   0.69260   Biso      1.000     O          -0.571693           
         O36       1.0000    0.75114   0.31412   0.69620   Biso      1.000     O          -0.601173           
         O37       1.0000    0.72910   0.16650   0.00910   Biso      1.000     O          -0.595331           
         O38       1.0000    0.74870   0.30500   0.06080   Biso      1.000     O          -0.520999           
         O39       1.0000    0.53030   0.03600   0.07280   Biso      1.000     O          -0.67811  
         O40       1.0000    0.35180   0.04190   0.18890   Biso      1.000     O          -0.558641           
         Zn1       1.0000    0.25493   0.10873   0.31575   Biso      1.000     Zn          0.772576  
         Zn2       1.0000    0.18193   0.16126   0.54290   Biso      1.000     Zn          0.978895  
         Zn3       1.0000    0.67941   0.39127   0.18425   Biso      1.000     Zn          0.772233  
         Zn4       1.0000    0.88609   0.33874   0.95710   Biso      1.000     Zn          0.979276  
         Zn5       1.0000    0.74507   0.89127   0.68425   Biso      1.000     Zn          0.772576  
         Zn6       1.0000    0.81807   0.83874   0.45710   Biso      1.000     Zn          0.978896  
         Zn7       1.0000    0.11391   0.66126   0.04290   Biso      1.000     Zn          0.979276  
         Zn8       1.0000    0.32059   0.60873   0.81575   Biso      1.000     Zn          0.772234 