
##########################################################################
#               Crystallographic Information Format file
#               Produced by PyCifRW module
#
#  This is a CIF file.  CIF has been adopted by the International
#  Union of Crystallography as the standard for data archiving and
#  transmission.
#
#  For information on this file format, follow the CIF links at
#  http://www.iucr.org
##########################################################################

data_image0

_cell_length_a                          13.237
_cell_length_b                          14.698
_cell_length_c                          14.87
_cell_angle_alpha                       90
_cell_angle_beta                        90
_cell_angle_gamma                       90
_symmetry_space_group_name_H-M          'P 1'
_symmetry_int_tables_number             1
loop_
  _symmetry_equiv_pos_as_xyz
         'x, y, z' 
loop_
  _atom_site_label
  _atom_site_occupancy
  _atom_site_fract_x
  _atom_site_fract_y
  _atom_site_fract_z
  _atom_site_thermal_displace_type
  _atom_site_B_iso_or_equiv
  _atom_site_type_symbol
  _atom_site_charge
         C1        1.0000    0.61700   0.45360   0.43870   Biso      1.000     C          0.417235  
         C2        1.0000    0.90280   0.09720   0.09330   Biso      1.000     C          -0.016283           
         C3        1.0000    0.85140   0.09040   0.01570   Biso      1.000     C          -0.072993           
         C4        1.0000    0.88300   0.95360   0.06130   Biso      1.000     C          0.417235  
         C5        1.0000    0.64560   0.34930   0.01760   Biso      1.000     C          -0.078046           
         C6        1.0000    0.66220   0.35820   0.70010   Biso      1.000     C          -0.079452           
         C7        1.0000    0.65040   0.05930   0.85290   Biso      1.000     C          -0.066491           
         C8        1.0000    0.61300   0.35300   0.42720   Biso      1.000     C          -0.575888           
         C9        1.0000    0.59720   0.59720   0.40670   Biso      1.000     C          -0.016283           
         C10       1.0000    0.64860   0.59040   0.48430   Biso      1.000     C          -0.072993           
         C11       1.0000    0.85440   0.84930   0.48240   Biso      1.000     C          -0.078046           
         C12       1.0000    0.83780   0.85820   0.79990   Biso      1.000     C          -0.079452           
         C13       1.0000    0.88700   0.85300   0.07280   Biso      1.000     C          -0.575888           
         C14       1.0000    0.84960   0.55930   0.64710   Biso      1.000     C          -0.066491           
         C15       1.0000    0.09720   0.40280   0.09330   Biso      1.000     C          -0.016283           
         C16       1.0000    0.14860   0.40960   0.01570   Biso      1.000     C          -0.072993           
         C17       1.0000    0.11700   0.54640   0.06130   Biso      1.000     C          0.417235  
         C18       1.0000    0.35440   0.15070   0.01760   Biso      1.000     C          -0.078046           
         C19       1.0000    0.33780   0.14180   0.70010   Biso      1.000     C          -0.079452           
         C20       1.0000    0.34960   0.44070   0.85290   Biso      1.000     C          -0.066491           
         C21       1.0000    0.38700   0.14700   0.42720   Biso      1.000     C          -0.575888           
         C22       1.0000    0.40280   0.90280   0.40670   Biso      1.000     C          -0.016283           
         C23       1.0000    0.35140   0.90960   0.48430   Biso      1.000     C          -0.072993           
         C24       1.0000    0.38300   0.04640   0.43870   Biso      1.000     C          0.417235  
         C25       1.0000    0.14560   0.65070   0.48240   Biso      1.000     C          -0.078046           
         C26       1.0000    0.11300   0.64700   0.07280   Biso      1.000     C          -0.575888           
         C27       1.0000    0.84960   0.05930   0.35290   Biso      1.000     C          -0.066491           
         C28       1.0000    0.83780   0.35820   0.20010   Biso      1.000     C          -0.079452           
         C29       1.0000    0.85440   0.34930   0.51760   Biso      1.000     C          -0.078046           
         C30       1.0000    0.11300   0.14700   0.92720   Biso      1.000     C          -0.575888           
         C31       1.0000    0.09720   0.90280   0.90670   Biso      1.000     C          -0.016283           
         C32       1.0000    0.14860   0.90960   0.98430   Biso      1.000     C          -0.072993           
         C33       1.0000    0.11700   0.04640   0.93870   Biso      1.000     C          0.417235  
         C34       1.0000    0.35440   0.65070   0.98240   Biso      1.000     C          -0.078046           
         C35       1.0000    0.33780   0.64180   0.29990   Biso      1.000     C          -0.079452           
         C36       1.0000    0.34960   0.94070   0.14710   Biso      1.000     C          -0.066491           
         C37       1.0000    0.38700   0.64700   0.57280   Biso      1.000     C          -0.575888           
         C38       1.0000    0.40280   0.40280   0.59330   Biso      1.000     C          -0.016283           
         C39       1.0000    0.35140   0.40960   0.51570   Biso      1.000     C          -0.072993           
         C40       1.0000    0.38300   0.54640   0.56130   Biso      1.000     C          0.417235  
         C41       1.0000    0.14560   0.15070   0.51760   Biso      1.000     C          -0.078046           
         C42       1.0000    0.16220   0.14180   0.20010   Biso      1.000     C          -0.079452           
         C43       1.0000    0.15040   0.44070   0.35290   Biso      1.000     C          -0.06649  
         C44       1.0000    0.88700   0.35300   0.92720   Biso      1.000     C          -0.575888           
         C45       1.0000    0.90280   0.59720   0.90670   Biso      1.000     C          -0.016283           
         C46       1.0000    0.85140   0.59040   0.98430   Biso      1.000     C          -0.072993           
         C47       1.0000    0.88300   0.45360   0.93870   Biso      1.000     C          0.417235  
         C48       1.0000    0.64560   0.84930   0.98240   Biso      1.000     C          -0.078046           
         C49       1.0000    0.66220   0.85820   0.29990   Biso      1.000     C          -0.079452           
         C50       1.0000    0.65040   0.55930   0.14710   Biso      1.000     C          -0.06649  
         C51       1.0000    0.61300   0.85300   0.57280   Biso      1.000     C          -0.575888           
         C52       1.0000    0.59720   0.09720   0.59330   Biso      1.000     C          -0.016283           
         C53       1.0000    0.64860   0.09040   0.51570   Biso      1.000     C          -0.072992           
         C54       1.0000    0.61700   0.95360   0.56130   Biso      1.000     C          0.417235  
         C55       1.0000    0.16220   0.64180   0.79990   Biso      1.000     C          -0.079452           
         C56       1.0000    0.15040   0.94070   0.64710   Biso      1.000     C          -0.06649  
         Cd1       1.0000    0.23831   0.06321   0.61010   Biso      1.000     Cd          0.468472  
         Cd2       1.0000    0.00000   0.25000   0.35115   Biso      1.000     Cd          0.920156  
         Cd3       1.0000    0.50000   0.75000   0.14885   Biso      1.000     Cd          0.920156  
         Cd4       1.0000    0.00000   0.75000   0.64885   Biso      1.000     Cd          0.920156  
         Cd5       1.0000    0.26169   0.06321   0.11010   Biso      1.000     Cd          0.468472  
         Cd6       1.0000    0.23831   0.56321   0.38990   Biso      1.000     Cd          0.468472  
         Cd7       1.0000    0.50000   0.25000   0.85115   Biso      1.000     Cd          0.920156  
         Cd8       1.0000    0.76169   0.93679   0.38990   Biso      1.000     Cd          0.468472  
         Cd9       1.0000    0.73831   0.93679   0.88990   Biso      1.000     Cd          0.468472  
         Cd10      1.0000    0.76169   0.43679   0.61010   Biso      1.000     Cd          0.468472  
         Cd11      1.0000    0.26169   0.56321   0.88990   Biso      1.000     Cd          0.468472  
         Cd12      1.0000    0.73831   0.43679   0.11010   Biso      1.000     Cd          0.468472  
         H1        1.0000    0.14650   0.67590   0.02310   Biso      1.000     H          0.183639  
         H2        1.0000    0.64650   0.32410   0.47690   Biso      1.000     H          0.183639  
         H3        1.0000    0.57920   0.65060   0.37720   Biso      1.000     H          0.118865  
         H4        1.0000    0.67200   0.63860   0.51910   Biso      1.000     H          0.121081  
         H5        1.0000    0.54400   0.49910   0.33330   Biso      1.000     H          0.31265   
         H6        1.0000    0.04380   0.66650   0.07480   Biso      1.000     H          0.172816  
         H7        1.0000    0.14610   0.66360   0.12780   Biso      1.000     H          0.192346  
         H8        1.0000    0.07920   0.34940   0.12280   Biso      1.000     H          0.118865  
         H9        1.0000    0.42080   0.84940   0.37720   Biso      1.000     H          0.118865  
         H10       1.0000    0.04400   0.50090   0.16670   Biso      1.000     H          0.312649  
         H11       1.0000    0.45620   0.16650   0.42520   Biso      1.000     H          0.172816  
         H12       1.0000    0.35390   0.16360   0.37220   Biso      1.000     H          0.192346  
         H13       1.0000    0.35350   0.17590   0.47690   Biso      1.000     H          0.183639  
         H14       1.0000    0.64610   0.33640   0.37220   Biso      1.000     H          0.192346  
         H15       1.0000    0.32800   0.86140   0.51910   Biso      1.000     H          0.121081  
         H16       1.0000    0.45600   0.00090   0.33330   Biso      1.000     H          0.312649  
         H17       1.0000    0.07920   0.84940   0.87720   Biso      1.000     H          0.118865  
         H18       1.0000    0.17200   0.36140   0.98090   Biso      1.000     H          0.121081  
         H19       1.0000    0.54380   0.33350   0.42520   Biso      1.000     H          0.172816  
         H20       1.0000    0.14650   0.17590   0.97690   Biso      1.000     H          0.183639  
         H21       1.0000    0.82800   0.13860   0.98090   Biso      1.000     H          0.121081  
         H22       1.0000    0.95600   0.99910   0.16670   Biso      1.000     H          0.312649  
         H23       1.0000    0.14610   0.16360   0.87220   Biso      1.000     H          0.192346  
         H24       1.0000    0.04380   0.16650   0.92520   Biso      1.000     H          0.172816  
         H25       1.0000    0.17200   0.86140   0.01910   Biso      1.000     H          0.121081  
         H26       1.0000    0.04400   0.00090   0.83330   Biso      1.000     H          0.312649  
         H27       1.0000    0.35390   0.66360   0.62780   Biso      1.000     H          0.192347  
         H28       1.0000    0.35350   0.67590   0.52310   Biso      1.000     H          0.183639  
         H29       1.0000    0.42080   0.34940   0.62280   Biso      1.000     H          0.118865  
         H30       1.0000    0.32800   0.36140   0.48090   Biso      1.000     H          0.121081  
         H31       1.0000    0.45600   0.50090   0.66670   Biso      1.000     H          0.312649  
         H32       1.0000    0.95620   0.33350   0.92520   Biso      1.000     H          0.172816  
         H33       1.0000    0.85390   0.33640   0.87220   Biso      1.000     H          0.192346  
         H34       1.0000    0.85350   0.32410   0.97690   Biso      1.000     H          0.183639  
         H35       1.0000    0.45620   0.66650   0.57480   Biso      1.000     H          0.172816  
         H36       1.0000    0.82800   0.63860   0.01910   Biso      1.000     H          0.121081  
         H37       1.0000    0.92080   0.15060   0.12280   Biso      1.000     H          0.118865  
         H38       1.0000    0.92080   0.65060   0.87720   Biso      1.000     H          0.118865  
         H39       1.0000    0.85350   0.82410   0.02310   Biso      1.000     H          0.183639  
         H40       1.0000    0.85390   0.83640   0.12780   Biso      1.000     H          0.192346  
         H41       1.0000    0.54400   0.99910   0.66670   Biso      1.000     H          0.31265   
         H42       1.0000    0.67200   0.13860   0.48090   Biso      1.000     H          0.121081  
         H43       1.0000    0.95620   0.83350   0.07480   Biso      1.000     H          0.172816  
         H44       1.0000    0.64650   0.82410   0.52310   Biso      1.000     H          0.183639  
         H45       1.0000    0.64610   0.83640   0.62780   Biso      1.000     H          0.192346  
         H46       1.0000    0.54380   0.83350   0.57480   Biso      1.000     H          0.172816  
         H47       1.0000    0.95600   0.49910   0.83330   Biso      1.000     H          0.312649  
         H48       1.0000    0.57920   0.15060   0.62280   Biso      1.000     H          0.118865  
         N1        1.0000    0.89850   0.31260   0.46450   Biso      1.000     N          -0.316374           
         N2        1.0000    0.89470   0.31960   0.24280   Biso      1.000     N          -0.319599           
         N3        1.0000    0.60150   0.81260   0.03550   Biso      1.000     N          -0.316374           
         N4        1.0000    0.57750   0.01340   0.61920   Biso      1.000     N          -0.283133           
         N5        1.0000    0.66040   0.99980   0.49680   Biso      1.000     N          -0.32387  
         N6        1.0000    0.60290   0.62130   0.15510   Biso      1.000     N          -0.315053           
         N7        1.0000    0.60530   0.81960   0.25720   Biso      1.000     N          -0.319599           
         N8        1.0000    0.92250   0.51340   0.88080   Biso      1.000     N          -0.283133           
         N9        1.0000    0.33960   0.50020   0.49680   Biso      1.000     N          -0.32387  
         N10       1.0000    0.10290   0.37870   0.34490   Biso      1.000     N          -0.315053           
         N11       1.0000    0.10530   0.18040   0.24280   Biso      1.000     N          -0.319599           
         N12       1.0000    0.10150   0.18740   0.46450   Biso      1.000     N          -0.316374           
         N13       1.0000    0.42250   0.48660   0.61920   Biso      1.000     N          -0.283133           
         N14       1.0000    0.39710   0.87870   0.15510   Biso      1.000     N          -0.315053           
         N15       1.0000    0.39470   0.68040   0.25720   Biso      1.000     N          -0.319599           
         N16       1.0000    0.89710   0.12130   0.34490   Biso      1.000     N          -0.315053           
         N17       1.0000    0.39850   0.68740   0.03550   Biso      1.000     N          -0.316374           
         N18       1.0000    0.83960   0.49980   0.00320   Biso      1.000     N          -0.32387  
         N19       1.0000    0.83960   0.99980   0.99680   Biso      1.000     N          -0.32387  
         N20       1.0000    0.39710   0.37870   0.84490   Biso      1.000     N          -0.315053           
         N21       1.0000    0.60150   0.31260   0.96450   Biso      1.000     N          -0.316374           
         N22       1.0000    0.07750   0.98660   0.88080   Biso      1.000     N          -0.283133           
         N23       1.0000    0.10290   0.87870   0.65510   Biso      1.000     N          -0.315053           
         N24       1.0000    0.10530   0.68040   0.75720   Biso      1.000     N          -0.319599           
         N25       1.0000    0.10150   0.68740   0.53550   Biso      1.000     N          -0.316374           
         N26       1.0000    0.42250   0.98660   0.38080   Biso      1.000     N          -0.283133           
         N27       1.0000    0.33960   0.00020   0.50320   Biso      1.000     N          -0.32387  
         N28       1.0000    0.39470   0.18040   0.74280   Biso      1.000     N          -0.319599           
         N29       1.0000    0.39850   0.18740   0.96450   Biso      1.000     N          -0.316374           
         N30       1.0000    0.07750   0.48660   0.11920   Biso      1.000     N          -0.283133           
         N31       1.0000    0.16040   0.50020   0.99680   Biso      1.000     N          -0.32387  
         N32       1.0000    0.89710   0.62130   0.65510   Biso      1.000     N          -0.315053           
         N33       1.0000    0.89470   0.81960   0.75720   Biso      1.000     N          -0.319599           
         N34       1.0000    0.89850   0.81260   0.53550   Biso      1.000     N          -0.316374           
         N35       1.0000    0.57750   0.51340   0.38080   Biso      1.000     N          -0.283133           
         N36       1.0000    0.66040   0.49980   0.50320   Biso      1.000     N          -0.32387  
         N37       1.0000    0.60290   0.12130   0.84490   Biso      1.000     N          -0.315053           
         N38       1.0000    0.60530   0.31960   0.74280   Biso      1.000     N          -0.319599           
         N39       1.0000    0.92250   0.01340   0.11920   Biso      1.000     N          -0.283133           
         N40       1.0000    0.16040   0.00020   0.00320   Biso      1.000     N          -0.32387 