
##########################################################################
#               Crystallographic Information Format file
#               Produced by PyCifRW module
#
#  This is a CIF file.  CIF has been adopted by the International
#  Union of Crystallography as the standard for data archiving and
#  transmission.
#
#  For information on this file format, follow the CIF links at
#  http://www.iucr.org
##########################################################################

data_image0

_cell_length_a                          9.8438
_cell_length_b                          13.2067
_cell_length_c                          16.4919
_cell_angle_alpha                       81.1208
_cell_angle_beta                        72.6358
_cell_angle_gamma                       68.1188
_symmetry_space_group_name_H-M          'P 1'
_symmetry_int_tables_number             1
loop_
  _symmetry_equiv_pos_as_xyz
         'x, y, z' 
loop_
  _atom_site_label
  _atom_site_occupancy
  _atom_site_fract_x
  _atom_site_fract_y
  _atom_site_fract_z
  _atom_site_thermal_displace_type
  _atom_site_B_iso_or_equiv
  _atom_site_type_symbol
  _atom_site_charge
         C1        1.0000    0.94730   0.48740   0.11240   Biso      1.000     C          0.183947  
         C2        1.0000    0.43070   0.27810   0.26630   Biso      1.000     C          0.181058  
         C3        1.0000    0.42730   0.39740   0.90860   Biso      1.000     C          0.609996  
         C4        1.0000    0.26850   0.41720   0.91180   Biso      1.000     C          0.001998  
         C5        1.0000    0.17420   0.35660   0.93980   Biso      1.000     C          -0.010879999999999999         
         C6        1.0000    0.19130   0.24580   0.98040   Biso      1.000     C          0.627609  
         C7        1.0000    0.05270   0.51260   0.88760   Biso      1.000     C          0.183946  
         C8        1.0000    0.02240   0.72960   0.56220   Biso      1.000     C          0.645142  
         C9        1.0000    0.06440   0.72720   0.64160   Biso      1.000     C          -0.012449           
         C10       1.0000    0.19030   0.66750   0.67190   Biso      1.000     C          -0.006615           
         C11       1.0000    0.33360   0.57580   0.64260   Biso      1.000     C          0.6201979999999999  
         C12       1.0000    0.02490   0.77810   0.76630   Biso      1.000     C          0.181998  
         C13       1.0000    0.26670   0.89740   0.40860   Biso      1.000     C          0.611955  
         C14       1.0000    0.52940   0.85660   0.43980   Biso      1.000     C          -0.009563           
         C15       1.0000    0.44800   0.07580   0.14260   Biso      1.000     C          0.6199020000000001  
         C16       1.0000    0.58250   0.74580   0.48040   Biso      1.000     C          0.627695  
         C17       1.0000    0.31420   0.77040   0.93780   Biso      1.000     C          0.642291  
         C18       1.0000    0.43320   0.77280   0.85840   Biso      1.000     C          -0.012192           
         C19       1.0000    0.52970   0.83250   0.82810   Biso      1.000     C          -0.0061329999999999996        
         C20       1.0000    0.55200   0.92420   0.85740   Biso      1.000     C          0.6199020000000001  
         C21       1.0000    0.56930   0.72190   0.73370   Biso      1.000     C          0.181058  
         C22       1.0000    0.57270   0.60260   0.09140   Biso      1.000     C          0.609996  
         C23       1.0000    0.73150   0.58280   0.08820   Biso      1.000     C          0.001998  
         C24       1.0000    0.82580   0.64340   0.06020   Biso      1.000     C          -0.010879999999999999         
         C25       1.0000    0.80870   0.75420   0.01960   Biso      1.000     C          0.627609  
         C26       1.0000    0.52700   0.25000   0.75000   Biso      1.000     C          0.510728  
         C27       1.0000    0.68520   0.25000   0.75000   Biso      1.000     C          0.5449970000000001  
         C28       1.0000    0.47300   0.75000   0.25000   Biso      1.000     C          0.510728  
         C29       1.0000    0.31480   0.75000   0.25000   Biso      1.000     C          0.5449970000000001  
         C30       1.0000    0.54710   0.01260   0.38760   Biso      1.000     C          0.184067  
         C31       1.0000    0.47030   0.16750   0.17190   Biso      1.000     C          -0.0061340000000000006        
         C32       1.0000    0.40250   0.91720   0.41180   Biso      1.000     C          -0.001111           
         C33       1.0000    0.68580   0.22960   0.06220   Biso      1.000     C          0.642291  
         C34       1.0000    0.45290   0.98740   0.61240   Biso      1.000     C          0.184067  
         C35       1.0000    0.41750   0.25420   0.51960   Biso      1.000     C          0.627695  
         C36       1.0000    0.47060   0.14340   0.56020   Biso      1.000     C          -0.009563           
         C37       1.0000    0.59750   0.08280   0.58820   Biso      1.000     C          -0.001111           
         C38       1.0000    0.73330   0.10260   0.59140   Biso      1.000     C          0.611956  
         C39       1.0000    0.97510   0.22190   0.23370   Biso      1.000     C          0.181998  
         C40       1.0000    0.66640   0.42420   0.35740   Biso      1.000     C          0.6201979999999999  
         C41       1.0000    0.80970   0.33250   0.32810   Biso      1.000     C          -0.0066159999999999995        
         C42       1.0000    0.93560   0.27280   0.35840   Biso      1.000     C          -0.012449           
         C43       1.0000    0.97760   0.27040   0.43780   Biso      1.000     C          0.645142  
         C44       1.0000    0.56680   0.22720   0.14160   Biso      1.000     C          -0.012192           
         H1        1.0000    0.02250   0.18530   0.18330   Biso      1.000     H          0.09689099999999999           
         H2        1.0000    0.41580   0.93010   0.62990   Biso      1.000     H          0.095887  
         H3        1.0000    0.39110   0.31470   0.31670   Biso      1.000     H          0.09739   
         H4        1.0000    0.97580   0.56990   0.87010   Biso      1.000     H          0.095429  
         H5        1.0000    0.97750   0.81470   0.81670   Biso      1.000     H          0.09689   
         H6        1.0000    0.58420   0.06990   0.37010   Biso      1.000     H          0.095887  
         H7        1.0000    0.60890   0.68530   0.68330   Biso      1.000     H          0.09739   
         H8        1.0000    0.02420   0.43010   0.12990   Biso      1.000     H          0.095429  
         N1        1.0000    0.41472   0.01576   0.37880   Biso      1.000     N          -0.321546           
         N2        1.0000    0.62106   0.91828   0.42420   Biso      1.000     N          -0.369152           
         N3        1.0000    0.96064   0.79662   0.70250   Biso      1.000     N          -0.294557           
         N4        1.0000    0.16337   0.70226   0.75160   Biso      1.000     N          -0.320088           
         N5        1.0000    0.19072   0.51576   0.87880   Biso      1.000     N          -0.322346           
         N6        1.0000    0.03646   0.41828   0.92420   Biso      1.000     N          -0.369464           
         N7        1.0000    0.54024   0.29662   0.20250   Biso      1.000     N          -0.294535           
         N8        1.0000    0.38277   0.20226   0.25160   Biso      1.000     N          -0.319405           
         N9        1.0000    0.58528   0.98424   0.62120   Biso      1.000     N          -0.32154699999999997          
         N10       1.0000    0.37894   0.08172   0.57580   Biso      1.000     N          -0.369151           
         N11       1.0000    0.61723   0.79774   0.74840   Biso      1.000     N          -0.31940599999999997          
         N12       1.0000    0.03936   0.20338   0.29750   Biso      1.000     N          -0.294556           
         N13       1.0000    0.96354   0.58172   0.07580   Biso      1.000     N          -0.369465           
         N14       1.0000    0.80928   0.48424   0.12120   Biso      1.000     N          -0.322346           
         N15       1.0000    0.45976   0.70338   0.79750   Biso      1.000     N          -0.294535           
         N16       1.0000    0.83663   0.29774   0.24840   Biso      1.000     N          -0.320088           
         O1        1.0000    0.24433   0.81044   0.43950   Biso      1.000     O          -0.688291           
         O2        1.0000    0.17766   0.97228   0.37200   Biso      1.000     O          -0.527972           
         O3        1.0000    0.41882   0.53656   0.69140   Biso      1.000     O          -0.576272           
         O4        1.0000    0.36987   0.53504   0.57042   Biso      1.000     O          -0.764598           
         O5        1.0000    0.89400   0.80080   0.55860   Biso      1.000     O          -0.519636           
         O6        1.0000    0.10710   0.66615   0.50485   Biso      1.000     O          -0.6455380000000001           
         O7        1.0000    0.46769   0.19592   0.80890   Biso      1.000     O          -0.6169   
         O8        1.0000    0.07267   0.22106   0.00180   Biso      1.000     O          -0.566635           
         O9        1.0000    0.31567   0.18186   0.99120   Biso      1.000     O          -0.665559           
         O10       1.0000    0.50573   0.31044   0.93950   Biso      1.000     O          -0.6861189999999999           
         O11       1.0000    0.74250   0.18988   0.80512   Biso      1.000     O          -0.654374           
         O12       1.0000    0.68433   0.81814   0.00880   Biso      1.000     O          -0.665559           
         O13       1.0000    0.49427   0.68956   0.06050   Biso      1.000     O          -0.6861189999999999           
         O14       1.0000    0.52194   0.52772   0.12800   Biso      1.000     O          -0.528874           
         O15       1.0000    0.51127   0.68186   0.49120   Biso      1.000     O          -0.6654479999999999           
         O16       1.0000    0.64678   0.96344   0.80860   Biso      1.000     O          -0.5765939999999999           
         O17       1.0000    0.47533   0.96496   0.92958   Biso      1.000     O          -0.764538           
         O18       1.0000    0.25340   0.69920   0.94140   Biso      1.000     O          -0.518079           
         O19       1.0000    0.27810   0.83385   0.99515   Biso      1.000     O          -0.644609           
         O20       1.0000    0.26250   0.68988   0.30512   Biso      1.000     O          -0.6536029999999999           
         O21       1.0000    0.52749   0.69592   0.30890   Biso      1.000     O          -0.617081           
         O22       1.0000    0.70447   0.72106   0.50180   Biso      1.000     O          -0.567048           
         O23       1.0000    0.47806   0.47228   0.87200   Biso      1.000     O          -0.5288729999999999           
         O24       1.0000    0.92733   0.77894   0.99820   Biso      1.000     O          -0.566635           
         O25       1.0000    0.35322   0.03656   0.19140   Biso      1.000     O          -0.576593           
         O26       1.0000    0.25750   0.81012   0.19488   Biso      1.000     O          -0.654374           
         O27       1.0000    0.74660   0.30080   0.05860   Biso      1.000     O          -0.51808  
         O28       1.0000    0.52467   0.03504   0.07042   Biso      1.000     O          -0.764538           
         O29       1.0000    0.89290   0.33385   0.49515   Biso      1.000     O          -0.6455390000000001           
         O30       1.0000    0.10600   0.19920   0.44140   Biso      1.000     O          -0.519636           
         O31       1.0000    0.63013   0.46496   0.42958   Biso      1.000     O          -0.764598           
         O32       1.0000    0.58118   0.46344   0.30860   Biso      1.000     O          -0.5762729999999999           
         O33       1.0000    0.82234   0.02772   0.62800   Biso      1.000     O          -0.5279729999999999           
         O34       1.0000    0.53231   0.80408   0.19110   Biso      1.000     O          -0.6169   
         O35       1.0000    0.48873   0.31814   0.50880   Biso      1.000     O          -0.665449           
         O36       1.0000    0.29553   0.27894   0.49820   Biso      1.000     O          -0.567048           
         O37       1.0000    0.47251   0.30408   0.69110   Biso      1.000     O          -0.617082           
         O38       1.0000    0.73750   0.31012   0.69488   Biso      1.000     O          -0.6536029999999999           
         O39       1.0000    0.72190   0.16615   0.00485   Biso      1.000     O          -0.644608           
         O40       1.0000    0.75567   0.18956   0.56050   Biso      1.000     O          -0.688291           
         Sm1       1.0000    0.58145   0.11810   0.92714   Biso      1.000     Sm          2.208463  
         Sm2       1.0000    0.37331   0.61810   0.42714   Biso      1.000     Sm          2.207928  
         Sm3       1.0000    0.41855   0.88190   0.07286   Biso      1.000     Sm          2.208463  
         Sm4       1.0000    0.62669   0.38190   0.57286   Biso      1.000     Sm          2.207928  
         Zn1       1.0000    0.67539   0.38960   0.18220   Biso      1.000     Zn          0.7787609999999999  
         Zn2       1.0000    0.17970   0.16051   0.54571   Biso      1.000     Zn          0.983133  
         Zn3       1.0000    0.24719   0.11040   0.31780   Biso      1.000     Zn          0.777436  
         Zn4       1.0000    0.82030   0.83949   0.45429   Biso      1.000     Zn          0.983133  
         Zn5       1.0000    0.32461   0.61040   0.81780   Biso      1.000     Zn          0.778759  
         Zn6       1.0000    0.11408   0.66051   0.04571   Biso      1.000     Zn          0.982908  
         Zn7       1.0000    0.88592   0.33949   0.95429   Biso      1.000     Zn          0.982908  
         Zn8       1.0000    0.75281   0.88960   0.68220   Biso      1.000     Zn          0.777438 