
##########################################################################
#               Crystallographic Information Format file
#               Produced by PyCifRW module
#
#  This is a CIF file.  CIF has been adopted by the International
#  Union of Crystallography as the standard for data archiving and
#  transmission.
#
#  For information on this file format, follow the CIF links at
#  http://www.iucr.org
##########################################################################

data_image0

_cell_length_a                          9.8214
_cell_length_b                          13.1994
_cell_length_c                          16.6115
_cell_angle_alpha                       81.3527
_cell_angle_beta                        72.8053
_cell_angle_gamma                       68.1586
_symmetry_space_group_name_H-M          'P 1'
_symmetry_int_tables_number             1
loop_
  _symmetry_equiv_pos_as_xyz
         'x, y, z' 
loop_
  _atom_site_label
  _atom_site_occupancy
  _atom_site_fract_x
  _atom_site_fract_y
  _atom_site_fract_z
  _atom_site_thermal_displace_type
  _atom_site_B_iso_or_equiv
  _atom_site_type_symbol
  _atom_site_charge
         C1        1.0000    0.94700   0.48890   0.11270   Biso      1.000     C          0.18366   
         C2        1.0000    0.42960   0.39730   0.90710   Biso      1.000     C          0.607711  
         C3        1.0000    0.27050   0.41650   0.91110   Biso      1.000     C          -0.00036899999999999997       
         C4        1.0000    0.17580   0.35620   0.94020   Biso      1.000     C          -0.009032           
         C5        1.0000    0.19250   0.24620   0.98080   Biso      1.000     C          0.6211180000000001  
         C6        1.0000    0.05300   0.51110   0.88730   Biso      1.000     C          0.18366   
         C7        1.0000    0.02010   0.73000   0.56300   Biso      1.000     C          0.6396229999999999  
         C8        1.0000    0.06180   0.72700   0.64200   Biso      1.000     C          -0.014554           
         C9        1.0000    0.18800   0.66730   0.67230   Biso      1.000     C          -0.00473  
         C10       1.0000    0.33190   0.57650   0.64210   Biso      1.000     C          0.617841  
         C11       1.0000    0.02240   0.77710   0.76610   Biso      1.000     C          0.18594000000000002           
         C12       1.0000    0.26600   0.89730   0.40710   Biso      1.000     C          0.608668  
         C13       1.0000    0.40190   0.91650   0.41110   Biso      1.000     C          -0.003478           
         C14       1.0000    0.52780   0.85620   0.44020   Biso      1.000     C          -0.005666           
         C15       1.0000    0.43440   0.27710   0.26610   Biso      1.000     C          0.18190499999999998           
         C16       1.0000    0.58050   0.74620   0.48080   Biso      1.000     C          0.62169   
         C17       1.0000    0.31310   0.77000   0.93700   Biso      1.000     C          0.638872  
         C18       1.0000    0.43080   0.77300   0.85800   Biso      1.000     C          -0.014156           
         C19       1.0000    0.52760   0.83270   0.82770   Biso      1.000     C          -0.006998999999999999         
         C20       1.0000    0.55050   0.92350   0.85790   Biso      1.000     C          0.6214    
         C21       1.0000    0.56560   0.72290   0.73390   Biso      1.000     C          0.18190599999999998           
         C22       1.0000    0.57040   0.60270   0.09290   Biso      1.000     C          0.607711  
         C23       1.0000    0.72950   0.58350   0.08890   Biso      1.000     C          -0.00036899999999999997       
         C24       1.0000    0.82420   0.64380   0.05980   Biso      1.000     C          -0.009032           
         C25       1.0000    0.80750   0.75380   0.01920   Biso      1.000     C          0.6211180000000001  
         C26       1.0000    0.53010   0.25000   0.75000   Biso      1.000     C          0.5155069999999999  
         C27       1.0000    0.68770   0.25000   0.75000   Biso      1.000     C          0.528828  
         C28       1.0000    0.46990   0.75000   0.25000   Biso      1.000     C          0.515506  
         C29       1.0000    0.31230   0.75000   0.25000   Biso      1.000     C          0.528828  
         C30       1.0000    0.54860   0.01110   0.38730   Biso      1.000     C          0.182489  
         C31       1.0000    0.47240   0.16730   0.17230   Biso      1.000     C          -0.007001           
         C32       1.0000    0.44950   0.07650   0.14210   Biso      1.000     C          0.6214    
         C33       1.0000    0.68690   0.23000   0.06300   Biso      1.000     C          0.638871  
         C34       1.0000    0.45140   0.98890   0.61270   Biso      1.000     C          0.182489  
         C35       1.0000    0.41950   0.25380   0.51920   Biso      1.000     C          0.62169   
         C36       1.0000    0.47220   0.14380   0.55980   Biso      1.000     C          -0.005667           
         C37       1.0000    0.59810   0.08350   0.58890   Biso      1.000     C          -0.0034770000000000005        
         C38       1.0000    0.73400   0.10270   0.59290   Biso      1.000     C          0.608668  
         C39       1.0000    0.97760   0.22290   0.23390   Biso      1.000     C          0.18594000000000002           
         C40       1.0000    0.66810   0.42350   0.35790   Biso      1.000     C          0.617841  
         C41       1.0000    0.81200   0.33270   0.32770   Biso      1.000     C          -0.004731           
         C42       1.0000    0.93820   0.27300   0.35800   Biso      1.000     C          -0.014554           
         C43       1.0000    0.97990   0.27000   0.43700   Biso      1.000     C          0.6396229999999999  
         C44       1.0000    0.56920   0.22700   0.14200   Biso      1.000     C          -0.014154           
         H1        1.0000    0.02480   0.18640   0.18380   Biso      1.000     H          0.09389700000000001           
         H2        1.0000    0.41300   0.93230   0.63050   Biso      1.000     H          0.095973  
         H3        1.0000    0.97580   0.56770   0.86950   Biso      1.000     H          0.096136  
         H4        1.0000    0.39500   0.31360   0.31620   Biso      1.000     H          0.09551699999999999           
         H5        1.0000    0.58700   0.06770   0.36950   Biso      1.000     H          0.095973  
         H6        1.0000    0.60500   0.68640   0.68380   Biso      1.000     H          0.09551699999999999           
         H7        1.0000    0.02420   0.43230   0.13050   Biso      1.000     H          0.096136  
         H8        1.0000    0.97520   0.81360   0.81620   Biso      1.000     H          0.09389700000000001           
         N1        1.0000    0.04251   0.20398   0.29680   Biso      1.000     N          -0.295005           
         N2        1.0000    0.83931   0.29868   0.24850   Biso      1.000     N          -0.318877           
         N3        1.0000    0.80867   0.48536   0.12210   Biso      1.000     N          -0.320646           
         N4        1.0000    0.96239   0.58262   0.07480   Biso      1.000     N          -0.368185           
         N5        1.0000    0.45671   0.70398   0.79680   Biso      1.000     N          -0.293405           
         N6        1.0000    0.61351   0.79868   0.74850   Biso      1.000     N          -0.317331           
         N7        1.0000    0.38649   0.20132   0.25150   Biso      1.000     N          -0.31733  
         N8        1.0000    0.61981   0.91738   0.42520   Biso      1.000     N          -0.36789499999999997          
         N9        1.0000    0.95749   0.79602   0.70320   Biso      1.000     N          -0.295005           
         N10       1.0000    0.16069   0.70132   0.75150   Biso      1.000     N          -0.318877           
         N11       1.0000    0.19133   0.51464   0.87790   Biso      1.000     N          -0.320646           
         N12       1.0000    0.03761   0.41738   0.92520   Biso      1.000     N          -0.368185           
         N13       1.0000    0.54329   0.29602   0.20320   Biso      1.000     N          -0.293405           
         N14       1.0000    0.38019   0.08262   0.57480   Biso      1.000     N          -0.367894           
         N15       1.0000    0.41613   0.01464   0.37790   Biso      1.000     N          -0.319731           
         N16       1.0000    0.58387   0.98536   0.62210   Biso      1.000     N          -0.319731           
         Nd1       1.0000    0.62844   0.38400   0.57350   Biso      1.000     Nd          2.141895  
         Nd2       1.0000    0.41406   0.88400   0.07350   Biso      1.000     Nd          2.1428700000000003  
         Nd3       1.0000    0.37156   0.61600   0.42650   Biso      1.000     Nd          2.141895  
         Nd4       1.0000    0.58594   0.11600   0.92650   Biso      1.000     Nd          2.1428700000000003  
         O1        1.0000    0.47993   0.47134   0.86920   Biso      1.000     O          -0.527641           
         O2        1.0000    0.46992   0.19592   0.80824   Biso      1.000     O          -0.6069220000000001           
         O3        1.0000    0.74903   0.18844   0.80450   Biso      1.000     O          -0.639864           
         O4        1.0000    0.10306   0.66660   0.50608   Biso      1.000     O          -0.6301439999999999           
         O5        1.0000    0.89145   0.80230   0.55940   Biso      1.000     O          -0.5223479999999999           
         O6        1.0000    0.36618   0.53564   0.57120   Biso      1.000     O          -0.738218           
         O7        1.0000    0.41918   0.53839   0.69005   Biso      1.000     O          -0.576096           
         O8        1.0000    0.17953   0.97134   0.36920   Biso      1.000     O          -0.5280060000000001           
         O9        1.0000    0.24191   0.81148   0.43870   Biso      1.000     O          -0.676821           
         O10       1.0000    0.50973   0.68194   0.49180   Biso      1.000     O          -0.653088           
         O11       1.0000    0.70285   0.72150   0.50220   Biso      1.000     O          -0.568733           
         O12       1.0000    0.25803   0.68844   0.30450   Biso      1.000     O          -0.6402359999999999           
         O13       1.0000    0.07345   0.22150   0.00220   Biso      1.000     O          -0.567507           
         O14       1.0000    0.27574   0.83340   0.99392   Biso      1.000     O          -0.63041  
         O15       1.0000    0.25315   0.69770   0.94060   Biso      1.000     O          -0.521971           
         O16       1.0000    0.47302   0.96436   0.92880   Biso      1.000     O          -0.739188           
         O17       1.0000    0.64762   0.96161   0.80995   Biso      1.000     O          -0.578508           
         O18       1.0000    0.52007   0.52866   0.13080   Biso      1.000     O          -0.52764  
         O19       1.0000    0.49209   0.68852   0.06130   Biso      1.000     O          -0.6764640000000001           
         O20       1.0000    0.68347   0.81806   0.00820   Biso      1.000     O          -0.6525380000000001           
         O21       1.0000    0.92655   0.77850   0.99780   Biso      1.000     O          -0.567507           
         O22       1.0000    0.52592   0.69592   0.30824   Biso      1.000     O          -0.606236           
         O23       1.0000    0.31653   0.18194   0.99180   Biso      1.000     O          -0.6525380000000001           
         O24       1.0000    0.25097   0.81156   0.19550   Biso      1.000     O          -0.639864           
         O25       1.0000    0.53008   0.80408   0.19176   Biso      1.000     O          -0.6069220000000001           
         O26       1.0000    0.89694   0.33340   0.49392   Biso      1.000     O          -0.6301439999999999           
         O27       1.0000    0.10855   0.19770   0.44060   Biso      1.000     O          -0.522347           
         O28       1.0000    0.63382   0.46436   0.42880   Biso      1.000     O          -0.738218           
         O29       1.0000    0.50791   0.31148   0.93870   Biso      1.000     O          -0.6764640000000001           
         O30       1.0000    0.82047   0.02866   0.63080   Biso      1.000     O          -0.5280050000000001           
         O31       1.0000    0.75809   0.18852   0.56130   Biso      1.000     O          -0.676821           
         O32       1.0000    0.49027   0.31806   0.50820   Biso      1.000     O          -0.653088           
         O33       1.0000    0.58082   0.46161   0.30995   Biso      1.000     O          -0.576096           
         O34       1.0000    0.47408   0.30408   0.69176   Biso      1.000     O          -0.606236           
         O35       1.0000    0.74197   0.31156   0.69550   Biso      1.000     O          -0.6402359999999999           
         O36       1.0000    0.72426   0.16660   0.00608   Biso      1.000     O          -0.63041  
         O37       1.0000    0.74685   0.30230   0.05940   Biso      1.000     O          -0.521971           
         O38       1.0000    0.52698   0.03564   0.07120   Biso      1.000     O          -0.739188           
         O39       1.0000    0.35238   0.03839   0.19005   Biso      1.000     O          -0.578508           
         O40       1.0000    0.29715   0.27850   0.49780   Biso      1.000     O          -0.568733           
         Zn1       1.0000    0.25010   0.10961   0.31669   Biso      1.000     Zn          0.778938  
         Zn2       1.0000    0.18080   0.16040   0.54452   Biso      1.000     Zn          0.981467  
         Zn3       1.0000    0.67640   0.39039   0.18331   Biso      1.000     Zn          0.7776430000000001  
         Zn4       1.0000    0.88572   0.33960   0.95548   Biso      1.000     Zn          0.9814069999999999  
         Zn5       1.0000    0.74990   0.89039   0.68331   Biso      1.000     Zn          0.778937  
         Zn6       1.0000    0.81920   0.83960   0.45548   Biso      1.000     Zn          0.981468  
         Zn7       1.0000    0.32360   0.60961   0.81669   Biso      1.000     Zn          0.777644  
         Zn8       1.0000    0.11428   0.66040   0.04452   Biso      1.000     Zn          0.9814069999999999 