
##########################################################################
#               Crystallographic Information Format file
#               Produced by PyCifRW module
#
#  This is a CIF file.  CIF has been adopted by the International
#  Union of Crystallography as the standard for data archiving and
#  transmission.
#
#  For information on this file format, follow the CIF links at
#  http://www.iucr.org
##########################################################################

data_image0

_cell_length_a                          9.8438
_cell_length_b                          13.2067
_cell_length_c                          16.4919
_cell_angle_alpha                       81.1208
_cell_angle_beta                        72.6358
_cell_angle_gamma                       68.1188
_symmetry_space_group_name_H-M          'P 1'
_symmetry_int_tables_number             1
loop_
  _symmetry_equiv_pos_as_xyz
         'x, y, z' 
loop_
  _atom_site_label
  _atom_site_occupancy
  _atom_site_fract_x
  _atom_site_fract_y
  _atom_site_fract_z
  _atom_site_thermal_displace_type
  _atom_site_B_iso_or_equiv
  _atom_site_type_symbol
  _atom_site_charge
         C1        1.0000    0.45250   0.48640   0.11260   Biso      1.000     C          0.192229  
         C2        1.0000    0.06436   0.22718   0.14170   Biso      1.000     C          -0.001484           
         C3        1.0000    0.02250   0.22970   0.06230   Biso      1.000     C          0.61402   
         C4        1.0000    0.02390   0.27870   0.26690   Biso      1.000     C          0.173894  
         C5        1.0000    0.57270   0.10260   0.59140   Biso      1.000     C          0.567421  
         C6        1.0000    0.73130   0.08280   0.58820   Biso      1.000     C          0.014216  
         C7        1.0000    0.82570   0.14330   0.56010   Biso      1.000     C          0.014069  
         C8        1.0000    0.80870   0.25430   0.51970   Biso      1.000     C          0.581862  
         C9        1.0000    0.94850   0.98640   0.61260   Biso      1.000     C          0.269705  
         C10       1.0000    0.44810   0.57580   0.64260   Biso      1.000     C          0.5836    
         C11       1.0000    0.47015   0.66760   0.67190   Biso      1.000     C          0.010129  
         C12       1.0000    0.56676   0.72718   0.64170   Biso      1.000     C          4.1e-05   
         C13       1.0000    0.68550   0.72970   0.56230   Biso      1.000     C          0.610632  
         C14       1.0000    0.43050   0.77870   0.76690   Biso      1.000     C          0.176614  
         C15       1.0000    0.26670   0.39740   0.90860   Biso      1.000     C          0.569877  
         C16       1.0000    0.40230   0.41720   0.91180   Biso      1.000     C          -0.002604           
         C17       1.0000    0.52910   0.35670   0.93990   Biso      1.000     C          0.004396  
         C18       1.0000    0.58270   0.24570   0.98030   Biso      1.000     C          0.582251  
         C19       1.0000    0.54750   0.51360   0.88740   Biso      1.000     C          0.192561  
         C20       1.0000    0.66650   0.92420   0.85740   Biso      1.000     C          0.583288  
         C21       1.0000    0.80965   0.83240   0.82810   Biso      1.000     C          0.007897  
         C22       1.0000    0.93564   0.77282   0.85830   Biso      1.000     C          0.00017   
         C23       1.0000    0.97750   0.77030   0.93770   Biso      1.000     C          0.614112  
         C24       1.0000    0.97610   0.72130   0.73310   Biso      1.000     C          0.181201  
         C25       1.0000    0.19035   0.16760   0.17190   Biso      1.000     C          0.007433  
         C26       1.0000    0.33350   0.07580   0.14260   Biso      1.000     C          0.583017  
         C27       1.0000    0.52710   0.75000   0.25000   Biso      1.000     C          0.494248  
         C28       1.0000    0.41730   0.75430   0.01970   Biso      1.000     C          0.582149  
         C29       1.0000    0.47290   0.25000   0.75000   Biso      1.000     C          0.494248  
         C30       1.0000    0.31470   0.25000   0.75000   Biso      1.000     C          0.507118  
         C31       1.0000    0.68530   0.75000   0.25000   Biso      1.000     C          0.507076  
         C32       1.0000    0.26870   0.91720   0.41180   Biso      1.000     C          0.00244   
         C33       1.0000    0.17430   0.85670   0.43990   Biso      1.000     C          0.005265  
         C34       1.0000    0.19130   0.74570   0.48030   Biso      1.000     C          0.583878  
         C35       1.0000    0.05150   0.01360   0.38740   Biso      1.000     C          0.192588  
         C36       1.0000    0.42730   0.89740   0.40860   Biso      1.000     C          0.569078  
         C37       1.0000    0.52985   0.33240   0.32810   Biso      1.000     C          0.008432  
         C38       1.0000    0.43324   0.27282   0.35830   Biso      1.000     C          -0.000232           
         C39       1.0000    0.31450   0.27030   0.43770   Biso      1.000     C          0.610696  
         C40       1.0000    0.56950   0.22130   0.23310   Biso      1.000     C          0.174927  
         C41       1.0000    0.73330   0.60260   0.09140   Biso      1.000     C          0.570053  
         C42       1.0000    0.59770   0.58280   0.08820   Biso      1.000     C          -0.00241  
         C43       1.0000    0.47090   0.64330   0.06010   Biso      1.000     C          0.004536  
         C44       1.0000    0.55190   0.42420   0.35740   Biso      1.000     C          0.582754  
         Eu1       1.0000    0.62669   0.88191   0.07285   Biso      1.000     Eu          1.386308  
         Eu2       1.0000    0.41855   0.38191   0.57285   Biso      1.000     Eu          1.386733  
         Eu3       1.0000    0.37331   0.11809   0.92715   Biso      1.000     Eu          1.386381  
         Eu4       1.0000    0.58145   0.61809   0.42715   Biso      1.000     Eu          1.385998  
         H1        1.0000    0.37727   0.82062   0.82998   Biso      1.000     H          0.102021  
         H2        1.0000    0.41448   0.41284   0.13544   Biso      1.000     H          0.097123  
         H3        1.0000    0.62273   0.17938   0.17002   Biso      1.000     H          0.102137  
         H4        1.0000    0.58552   0.58716   0.86456   Biso      1.000     H          0.097452  
         H5        1.0000    0.97212   0.32062   0.32998   Biso      1.000     H          0.102361  
         H6        1.0000    0.96276   0.08716   0.36456   Biso      1.000     H          0.09765   
         H7        1.0000    0.02788   0.67938   0.67002   Biso      1.000     H          0.10283   
         N1        1.0000    0.45964   0.20352   0.29740   Biso      1.000     N          -0.297738           
         N2        1.0000    0.03944   0.70352   0.79740   Biso      1.000     N          -0.294734           
         N3        1.0000    0.83650   0.79770   0.74850   Biso      1.000     N          -0.330386           
         N4        1.0000    0.62094   0.41832   0.92420   Biso      1.000     N          -0.372509           
         N5        1.0000    0.41483   0.51594   0.87880   Biso      1.000     N          -0.323539           
         N6        1.0000    0.38270   0.70230   0.75150   Biso      1.000     N          -0.32811  
         N7        1.0000    0.96346   0.08168   0.57580   Biso      1.000     N          -0.412839           
         N8        1.0000    0.80957   0.98406   0.62120   Biso      1.000     N          -0.356159           
         N9        1.0000    0.54036   0.79648   0.70260   Biso      1.000     N          -0.298966           
         N10       1.0000    0.16350   0.20230   0.25150   Biso      1.000     N          -0.330694           
         N11       1.0000    0.37906   0.58168   0.07580   Biso      1.000     N          -0.372586           
         N12       1.0000    0.58517   0.48406   0.12120   Biso      1.000     N          -0.323839           
         N13       1.0000    0.61730   0.29770   0.24850   Biso      1.000     N          -0.331534           
         N14       1.0000    0.03654   0.91832   0.42420   Biso      1.000     N          -0.373444           
         N15       1.0000    0.19043   0.01594   0.37880   Biso      1.000     N          -0.325031           
         N16       1.0000    0.96056   0.29648   0.20260   Biso      1.000     N          -0.296622           
         O1        1.0000    0.53222   0.30407   0.69109   Biso      1.000     O          -0.471007           
         O2        1.0000    0.68414   0.31822   0.50870   Biso      1.000     O          -0.515764           
         O3        1.0000    0.92731   0.27888   0.49810   Biso      1.000     O          -0.546327           
         O4        1.0000    0.35308   0.53656   0.69148   Biso      1.000     O          -0.53669  
         O5        1.0000    0.52472   0.53518   0.57038   Biso      1.000     O          -0.595727           
         O6        1.0000    0.72206   0.66612   0.50476   Biso      1.000     O          -0.551567           
         O7        1.0000    0.74649   0.80090   0.55872   Biso      1.000     O          -0.535934           
         O8        1.0000    0.25501   0.31106   0.69452   Biso      1.000     O          -0.490867           
         O9        1.0000    0.17766   0.47228   0.87200   Biso      1.000     O          -0.48758  
         O10       1.0000    0.26059   0.18894   0.80548   Biso      1.000     O          -0.490301           
         O11       1.0000    0.51106   0.18178   0.99130   Biso      1.000     O          -0.513937           
         O12       1.0000    0.70429   0.22112   0.00190   Biso      1.000     O          -0.545647           
         O13       1.0000    0.58112   0.96344   0.80852   Biso      1.000     O          -0.536232           
         O14       1.0000    0.63028   0.96482   0.92962   Biso      1.000     O          -0.59523  
         O15       1.0000    0.89294   0.83388   0.99524   Biso      1.000     O          -0.552484           
         O16       1.0000    0.10611   0.69910   0.94128   Biso      1.000     O          -0.538458           
         O17       1.0000    0.49435   0.18960   0.56050   Biso      1.000     O          -0.527721           
         O18       1.0000    0.52738   0.19593   0.80891   Biso      1.000     O          -0.471229           
         O19       1.0000    0.24445   0.31040   0.93950   Biso      1.000     O          -0.529648           
         O20       1.0000    0.52194   0.02772   0.62800   Biso      1.000     O          -0.490147           
         O21       1.0000    0.41888   0.03656   0.19148   Biso      1.000     O          -0.537562           
         O22       1.0000    0.73941   0.81106   0.19452   Biso      1.000     O          -0.491471           
         O23       1.0000    0.47806   0.97228   0.37200   Biso      1.000     O          -0.489603           
         O24       1.0000    0.50565   0.81040   0.43950   Biso      1.000     O          -0.525509           
         O25       1.0000    0.31586   0.68178   0.49130   Biso      1.000     O          -0.510395           
         O26       1.0000    0.07269   0.72112   0.50190   Biso      1.000     O          -0.543189           
         O27       1.0000    0.64692   0.46344   0.30852   Biso      1.000     O          -0.537633           
         O28       1.0000    0.47262   0.80407   0.19109   Biso      1.000     O          -0.470676           
         O29       1.0000    0.27794   0.33388   0.49524   Biso      1.000     O          -0.551824           
         O30       1.0000    0.25351   0.19910   0.44128   Biso      1.000     O          -0.538574           
         O31       1.0000    0.74499   0.68894   0.30548   Biso      1.000     O          -0.490521           
         O32       1.0000    0.47528   0.46482   0.42962   Biso      1.000     O          -0.596215           
         O33       1.0000    0.82234   0.52772   0.12800   Biso      1.000     O          -0.489028           
         O34       1.0000    0.75555   0.68960   0.06050   Biso      1.000     O          -0.529976           
         O35       1.0000    0.48894   0.81822   0.00870   Biso      1.000     O          -0.514624           
         O36       1.0000    0.29571   0.77888   0.99810   Biso      1.000     O          -0.545734           
         O37       1.0000    0.36972   0.03518   0.07038   Biso      1.000     O          -0.596559           
         O38       1.0000    0.10706   0.16612   0.00476   Biso      1.000     O          -0.55228  
         O39       1.0000    0.89389   0.30090   0.05872   Biso      1.000     O          -0.538481           
         O40       1.0000    0.46778   0.69593   0.30891   Biso      1.000     O          -0.471577           
         Zn1       1.0000    0.17967   0.66050   0.04572   Biso      1.000     Zn          0.979047  
         Zn2       1.0000    0.88589   0.83950   0.45428   Biso      1.000     Zn          0.980303  
         Zn3       1.0000    0.67538   0.88960   0.68222   Biso      1.000     Zn          0.8105    
         Zn4       1.0000    0.82033   0.33950   0.95428   Biso      1.000     Zn          0.980166  
         Zn5       1.0000    0.75280   0.38960   0.18222   Biso      1.000     Zn          0.800935  
         Zn6       1.0000    0.11411   0.16050   0.54572   Biso      1.000     Zn          0.992431  
         Zn7       1.0000    0.32462   0.11040   0.31778   Biso      1.000     Zn          0.802464  
         Zn8       1.0000    0.24720   0.61040   0.81778   Biso      1.000     Zn          0.802426 