
##########################################################################
#               Crystallographic Information Format file
#               Produced by PyCifRW module
#
#  This is a CIF file.  CIF has been adopted by the International
#  Union of Crystallography as the standard for data archiving and
#  transmission.
#
#  For information on this file format, follow the CIF links at
#  http://www.iucr.org
##########################################################################

data_image0

_cell_length_a                          10.134
_cell_length_b                          10.3552
_cell_length_c                          10.7436
_cell_angle_alpha                       78.1625
_cell_angle_beta                        89.43
_cell_angle_gamma                       65.239
_symmetry_space_group_name_H-M          'P 1'
_symmetry_int_tables_number             1
loop_
  _symmetry_equiv_pos_as_xyz
         'x, y, z' 
loop_
  _atom_site_label
  _atom_site_occupancy
  _atom_site_fract_x
  _atom_site_fract_y
  _atom_site_fract_z
  _atom_site_thermal_displace_type
  _atom_site_B_iso_or_equiv
  _atom_site_type_symbol
  _atom_site_charge
         C1        1.0000    0.17580   0.53870   0.48040   Biso      1.000     C          -0.236337           
         C2        1.0000    0.32880   0.70960   0.82480   Biso      1.000     C          -0.243621           
         C3        1.0000    0.34330   0.54420   0.63160   Biso      1.000     C          0.153173  
         C4        1.0000    0.36790   0.64770   0.54310   Biso      1.000     C          -0.206546           
         C5        1.0000    0.29550   0.69720   0.42160   Biso      1.000     C          -0.125591           
         C6        1.0000    0.19900   0.64310   0.39030   Biso      1.000     C          -0.034907           
         C7        1.0000    0.11870   0.69600   0.26050   Biso      1.000     C          0.582921  
         C8        1.0000    0.82420   0.46130   0.51960   Biso      1.000     C          -0.236337           
         C9        1.0000    0.24840   0.48630   0.60230   Biso      1.000     C          0.197346  
         C10       1.0000    0.76520   0.05730   0.10410   Biso      1.000     C          0.612932  
         C11       1.0000    0.64160   0.19630   0.11590   Biso      1.000     C          0.009636  
         C12       1.0000    0.49950   0.23440   0.06820   Biso      1.000     C          -0.125296           
         C13       1.0000    0.38960   0.36770   0.07640   Biso      1.000     C          -0.020494           
         C14       1.0000    0.23470   0.41480   0.02280   Biso      1.000     C          0.65722   
         C15       1.0000    0.41830   0.46210   0.13540   Biso      1.000     C          -0.203323           
         C16       1.0000    0.55900   0.41920   0.18710   Biso      1.000     C          0.278677  
         C17       1.0000    0.67120   0.29040   0.17520   Biso      1.000     C          -0.243616           
         C18       1.0000    0.65670   0.45580   0.36840   Biso      1.000     C          0.153172  
         C19       1.0000    0.63210   0.35230   0.45690   Biso      1.000     C          -0.206546           
         C20       1.0000    0.70450   0.30280   0.57840   Biso      1.000     C          -0.125591           
         C21       1.0000    0.44100   0.58080   0.81290   Biso      1.000     C          0.278679  
         C22       1.0000    0.58170   0.53790   0.86460   Biso      1.000     C          -0.203322           
         C23       1.0000    0.76530   0.58520   0.97720   Biso      1.000     C          0.65722   
         C24       1.0000    0.61040   0.63230   0.92360   Biso      1.000     C          -0.020496           
         C25       1.0000    0.75160   0.51370   0.39770   Biso      1.000     C          0.197345  
         C26       1.0000    0.80100   0.35690   0.60970   Biso      1.000     C          -0.034907           
         C27       1.0000    0.88130   0.30400   0.73950   Biso      1.000     C          0.582921  
         C28       1.0000    0.50050   0.76560   0.93180   Biso      1.000     C          -0.125295           
         C29       1.0000    0.35840   0.80370   0.88410   Biso      1.000     C          0.009636  
         C30       1.0000    0.23480   0.94270   0.89590   Biso      1.000     C          0.612932  
         H1        1.0000    0.85580   0.63530   0.31920   Biso      1.000     H          0.302818  
         H2        1.0000    0.52170   0.83080   0.96960   Biso      1.000     H          0.133064  
         H3        1.0000    0.65690   0.44590   0.85990   Biso      1.000     H          0.140092  
         H4        1.0000    0.23220   0.73440   0.79300   Biso      1.000     H          0.122669  
         H5        1.0000    0.43380   0.68460   0.56520   Biso      1.000     H          0.134671  
         H6        1.0000    0.31210   0.76790   0.36020   Biso      1.000     H          0.11677   
         H7        1.0000    0.10930   0.50250   0.45840   Biso      1.000     H          0.130156  
         H8        1.0000    0.25000   0.38560   0.78100   Biso      1.000     H          0.27791   
         H9        1.0000    0.34310   0.55410   0.14010   Biso      1.000     H          0.140092  
         H10       1.0000    0.76780   0.26560   0.20700   Biso      1.000     H          0.122669  
         H11       1.0000    0.56620   0.31540   0.43480   Biso      1.000     H          0.134672  
         H12       1.0000    0.68790   0.23210   0.63980   Biso      1.000     H          0.116769  
         H13       1.0000    0.89070   0.49750   0.54160   Biso      1.000     H          0.130156  
         H14       1.0000    0.75000   0.61440   0.21900   Biso      1.000     H          0.27791   
         H15       1.0000    0.14420   0.36470   0.68080   Biso      1.000     H          0.302818  
         H16       1.0000    0.47830   0.16920   0.03040   Biso      1.000     H          0.133064  
         La1       1.0000    0.03339   0.20630   0.00051   Biso      1.000     La          1.943138  
         La2       1.0000    0.96661   0.79370   0.99949   Biso      1.000     La          1.943138  
         N1        1.0000    0.23690   0.37480   0.69220   Biso      1.000     N          -0.606451           
         N2        1.0000    0.76310   0.62520   0.30780   Biso      1.000     N          -0.606451           
         O1        1.0000    0.58450   0.51500   0.24660   Biso      1.000     O          -0.211693           
         O2        1.0000    0.20320   0.31810   0.99400   Biso      1.000     O          -0.639936           
         O3        1.0000    0.14800   0.54720   0.00910   Biso      1.000     O          -0.652079           
         O4        1.0000    0.74170   0.94620   0.10750   Biso      1.000     O          -0.566921           
         O5        1.0000    0.89160   0.05340   0.08850   Biso      1.000     O          -0.695665           
         O6        1.0000    0.01520   0.66410   0.24080   Biso      1.000     O          -0.596442           
         O7        1.0000    0.15850   0.76910   0.17170   Biso      1.000     O          -0.627893           
         O8        1.0000    0.41550   0.48500   0.75340   Biso      1.000     O          -0.211693           
         O9        1.0000    0.79680   0.68190   0.00600   Biso      1.000     O          -0.639936           
         O10       1.0000    0.85200   0.45280   0.99090   Biso      1.000     O          -0.652079           
         O11       1.0000    0.25830   0.05380   0.89250   Biso      1.000     O          -0.566921           
         O12       1.0000    0.10840   0.94660   0.91150   Biso      1.000     O          -0.695665           
         O13       1.0000    0.84150   0.23090   0.82830   Biso      1.000     O          -0.627893           
         O14       1.0000    0.98480   0.33590   0.75920   Biso      1.000     O          -0.596442 