
##########################################################################
#               Crystallographic Information Format file
#               Produced by PyCifRW module
#
#  This is a CIF file.  CIF has been adopted by the International
#  Union of Crystallography as the standard for data archiving and
#  transmission.
#
#  For information on this file format, follow the CIF links at
#  http://www.iucr.org
##########################################################################

data_image0

_cell_length_a                          10.4702
_cell_length_b                          12.0131
_cell_length_c                          13.1765
_cell_angle_alpha                       83.827
_cell_angle_beta                        85.92
_cell_angle_gamma                       75.686
_symmetry_space_group_name_H-M          'P 1'
_symmetry_int_tables_number             1
loop_
  _symmetry_equiv_pos_as_xyz
         'x, y, z' 
loop_
  _atom_site_label
  _atom_site_occupancy
  _atom_site_fract_x
  _atom_site_fract_y
  _atom_site_fract_z
  _atom_site_thermal_displace_type
  _atom_site_B_iso_or_equiv
  _atom_site_type_symbol
  _atom_site_charge
         C1        1.0000    0.59380   0.21210   0.05430   Biso      1.000     C          -0.01011  
         C2        1.0000    0.63370   0.31720   0.00410   Biso      1.000     C          0.502939  
         C3        1.0000    0.47120   0.98930   0.86170   Biso      1.000     C          -0.13691  
         C4        1.0000    0.82870   0.74730   0.52220   Biso      1.000     C          -0.01568  
         C5        1.0000    0.93130   0.80250   0.52510   Biso      1.000     C          -0.066285           
         C6        1.0000    0.68790   0.81560   0.52500   Biso      1.000     C          0.6082569999999999  
         C7        1.0000    0.08610   0.61860   0.51140   Biso      1.000     C          -0.12206600000000001          
         C8        1.0000    0.43130   0.91940   0.79950   Biso      1.000     C          -0.004786           
         C9        1.0000    0.44580   0.85880   0.00760   Biso      1.000     C          -0.144174           
         C10       1.0000    0.85600   0.62980   0.51290   Biso      1.000     C          -0.126448           
         C11       1.0000    0.14400   0.37020   0.48710   Biso      1.000     C          -0.126449           
         C12       1.0000    0.93950   0.26390   0.47940   Biso      1.000     C          -0.009346           
         C13       1.0000    0.39880   0.81810   0.84080   Biso      1.000     C          -0.077521           
         C14       1.0000    0.47950   0.96200   0.96680   Biso      1.000     C          0.091054  
         C15       1.0000    0.42410   0.95590   0.68660   Biso      1.000     C          0.609503  
         C16       1.0000    0.98590   0.56300   0.50640   Biso      1.000     C          0.094903  
         C17       1.0000    0.52880   0.01070   0.13830   Biso      1.000     C          -0.136913           
         C18       1.0000    0.82530   0.20880   0.48170   Biso      1.000     C          0.537564  
         C19       1.0000    0.17130   0.25270   0.47780   Biso      1.000     C          -0.015678           
         C20       1.0000    0.55420   0.14120   0.99240   Biso      1.000     C          -0.144173           
         C21       1.0000    0.06050   0.73610   0.52060   Biso      1.000     C          -0.009344           
         C22       1.0000    0.36630   0.68280   0.99590   Biso      1.000     C          0.502937  
         C23       1.0000    0.60120   0.18190   0.15920   Biso      1.000     C          -0.077526           
         C24       1.0000    0.52050   0.03800   0.03320   Biso      1.000     C          0.091056  
         C25       1.0000    0.01410   0.43700   0.49360   Biso      1.000     C          0.094901  
         C26       1.0000    0.57590   0.04410   0.31340   Biso      1.000     C          0.6095010000000001  
         C27       1.0000    0.56870   0.08060   0.20050   Biso      1.000     C          -0.004784           
         C28       1.0000    0.17470   0.79120   0.51830   Biso      1.000     C          0.537571  
         C29       1.0000    0.40620   0.78790   0.94570   Biso      1.000     C          -0.01011  
         C30       1.0000    0.06870   0.19750   0.47490   Biso      1.000     C          -0.066285           
         C31       1.0000    0.91390   0.38140   0.48860   Biso      1.000     C          -0.12206199999999999          
         C32       1.0000    0.31210   0.18440   0.47500   Biso      1.000     C          0.608255  
         Eu1       1.0000    0.39278   0.88220   0.45222   Biso      1.000     Eu          1.374642  
         Eu2       1.0000    0.60722   0.11780   0.54778   Biso      1.000     Eu          1.374644  
         H1        1.0000    0.37200   0.77000   0.79810   Biso      1.000     H          0.14058800000000002           
         H2        1.0000    0.08690   0.11680   0.47000   Biso      1.000     H          0.132576  
         H3        1.0000    0.82490   0.42500   0.49150   Biso      1.000     H          0.129629  
         H4        1.0000    0.45020   0.83730   0.07900   Biso      1.000     H          0.127679  
         H5        1.0000    0.49350   0.05800   0.83170   Biso      1.000     H          0.119805  
         H6        1.0000    0.78510   0.59380   0.51090   Biso      1.000     H          0.131886  
         H7        1.0000    0.54980   0.16270   0.92100   Biso      1.000     H          0.12767799999999999           
         H8        1.0000    0.62800   0.23000   0.20190   Biso      1.000     H          0.140587  
         H9        1.0000    0.50650   0.94200   0.16830   Biso      1.000     H          0.119808  
         H10       1.0000    0.91310   0.88320   0.53000   Biso      1.000     H          0.132575  
         H11       1.0000    0.17510   0.57500   0.50850   Biso      1.000     H          0.129629  
         H12       1.0000    0.21490   0.40620   0.48910   Biso      1.000     H          0.13188699999999998           
         O1        1.0000    0.38940   0.89063   0.63161   Biso      1.000     O          -0.544151           
         O2        1.0000    0.84600   0.10073   0.47778   Biso      1.000     O          -0.47651899999999997          
         O3        1.0000    0.60130   0.76483   0.50828   Biso      1.000     O          -0.53827  
         O4        1.0000    0.33320   0.07990   0.45679   Biso      1.000     O          -0.584237           
         O5        1.0000    0.34830   0.66660   0.08730   Biso      1.000     O          -0.359865           
         O6        1.0000    0.71010   0.27278   0.49277   Biso      1.000     O          -0.521521           
         O7        1.0000    0.39870   0.23517   0.49172   Biso      1.000     O          -0.5382680000000001           
         O8        1.0000    0.65170   0.33340   0.91270   Biso      1.000     O          -0.359861           
         O9        1.0000    0.64800   0.38910   0.06973   Biso      1.000     O          -0.27894  
         O10       1.0000    0.28990   0.72722   0.50723   Biso      1.000     O          -0.521536           
         O11       1.0000    0.66680   0.92010   0.54321   Biso      1.000     O          -0.584246           
         O12       1.0000    0.15400   0.89927   0.52222   Biso      1.000     O          -0.476517           
         O13       1.0000    0.61060   0.10937   0.36839   Biso      1.000     O          -0.544151           
         O14       1.0000    0.54620   0.95002   0.34285   Biso      1.000     O          -0.584178           
         O15       1.0000    0.45380   0.04998   0.65715   Biso      1.000     O          -0.584183           
         O16       1.0000    0.35200   0.61090   0.93027   Biso      1.000     O          -0.278964 