
##########################################################################
#               Crystallographic Information Format file
#               Produced by PyCifRW module
#
#  This is a CIF file.  CIF has been adopted by the International
#  Union of Crystallography as the standard for data archiving and
#  transmission.
#
#  For information on this file format, follow the CIF links at
#  http://www.iucr.org
##########################################################################

data_image0

_cell_length_a                          10.464
_cell_length_b                          12.0162
_cell_length_c                          13.1846
_cell_angle_alpha                       83.78
_cell_angle_beta                        86.014
_cell_angle_gamma                       75.659
_symmetry_space_group_name_H-M          'P 1'
_symmetry_int_tables_number             1
loop_
  _symmetry_equiv_pos_as_xyz
         'x, y, z' 
loop_
  _atom_site_label
  _atom_site_occupancy
  _atom_site_fract_x
  _atom_site_fract_y
  _atom_site_fract_z
  _atom_site_thermal_displace_type
  _atom_site_B_iso_or_equiv
  _atom_site_type_symbol
  _atom_site_charge
         C1        1.0000    0.36660   0.18300   0.49570   Biso      1.000     C          0.590385  
         C2        1.0000    0.43200   0.41880   0.29970   Biso      1.000     C          -0.008462           
         C3        1.0000    0.98560   0.06260   0.00620   Biso      1.000     C          0.089418  
         C4        1.0000    0.82970   0.24760   0.02210   Biso      1.000     C          -0.012784           
         C5        1.0000    0.40630   0.28850   0.44580   Biso      1.000     C          -0.033392000000000005         
         C6        1.0000    0.59370   0.71150   0.55420   Biso      1.000     C          -0.033394           
         C7        1.0000    0.52040   0.53860   0.53290   Biso      1.000     C          0.08090399999999999           
         C8        1.0000    0.52910   0.51060   0.63850   Biso      1.000     C          -0.157173           
         C9        1.0000    0.82520   0.70820   0.98120   Biso      1.000     C          0.54359   
         C10       1.0000    0.57490   0.54500   0.81300   Biso      1.000     C          0.607888  
         C11       1.0000    0.93940   0.76400   0.97930   Biso      1.000     C          -0.009426           
         C12       1.0000    0.60120   0.68250   0.65910   Biso      1.000     C          -0.115551           
         C13       1.0000    0.55400   0.64110   0.49240   Biso      1.000     C          -0.149152           
         C14       1.0000    0.06820   0.69810   0.97490   Biso      1.000     C          -0.07633  
         C15       1.0000    0.91290   0.88180   0.98810   Biso      1.000     C          -0.127749           
         C16       1.0000    0.31160   0.68380   0.97470   Biso      1.000     C          0.605578  
         C17       1.0000    0.14420   0.87010   0.98730   Biso      1.000     C          -0.137193           
         C18       1.0000    0.56800   0.58120   0.70030   Biso      1.000     C          -0.008459999999999999         
         C19       1.0000    0.01440   0.93740   0.99380   Biso      1.000     C          0.089429  
         C20       1.0000    0.17030   0.75240   0.97790   Biso      1.000     C          -0.012773           
         C21       1.0000    0.85580   0.12990   0.01270   Biso      1.000     C          -0.137184           
         C22       1.0000    0.68840   0.31620   0.02530   Biso      1.000     C          0.605584  
         C23       1.0000    0.63340   0.81700   0.50430   Biso      1.000     C          0.590385  
         C24       1.0000    0.17480   0.29180   0.01880   Biso      1.000     C          0.5435760000000001  
         C25       1.0000    0.47960   0.46140   0.46710   Biso      1.000     C          0.080901  
         C26       1.0000    0.93180   0.30190   0.02510   Biso      1.000     C          -0.07633  
         C27       1.0000    0.47090   0.48940   0.36150   Biso      1.000     C          -0.157174           
         C28       1.0000    0.08710   0.11820   0.01190   Biso      1.000     C          -0.127748           
         C29       1.0000    0.44600   0.35890   0.50760   Biso      1.000     C          -0.149149           
         C30       1.0000    0.42510   0.45500   0.18700   Biso      1.000     C          0.607883  
         C31       1.0000    0.39880   0.31750   0.34090   Biso      1.000     C          -0.11555399999999999          
         C32       1.0000    0.06060   0.23600   0.02070   Biso      1.000     C          -0.009418000000000001         
         Eu1       1.0000    0.39268   0.38214   0.95242   Biso      1.000     Eu          1.375129  
         Eu2       1.0000    0.60732   0.61786   0.04758   Biso      1.000     Eu          1.375113  
         H1        1.0000    0.17610   0.07440   0.00970   Biso      1.000     H          0.129637  
         H2        1.0000    0.54930   0.66280   0.42100   Biso      1.000     H          0.12472000000000001           
         H3        1.0000    0.33020   0.05460   0.46210   Biso      1.000     H          0.438975  
         H4        1.0000    0.62830   0.73070   0.70160   Biso      1.000     H          0.15370799999999998           
         H5        1.0000    0.91370   0.38270   0.03010   Biso      1.000     H          0.133741  
         H6        1.0000    0.78440   0.09450   0.01060   Biso      1.000     H          0.13206800000000002           
         H7        1.0000    0.49220   0.55850   0.33150   Biso      1.000     H          0.1319    
         H8        1.0000    0.50780   0.44150   0.66850   Biso      1.000     H          0.131895  
         H9        1.0000    0.45070   0.33720   0.57900   Biso      1.000     H          0.12472000000000001           
         H10       1.0000    0.82390   0.92560   0.99030   Biso      1.000     H          0.129637  
         H11       1.0000    0.66980   0.94540   0.53790   Biso      1.000     H          0.43897200000000003           
         H12       1.0000    0.21560   0.90550   0.98940   Biso      1.000     H          0.13206700000000002           
         H13       1.0000    0.37170   0.26930   0.29840   Biso      1.000     H          0.15370899999999998           
         H14       1.0000    0.08630   0.61730   0.96990   Biso      1.000     H          0.13373800000000002           
         O1        1.0000    0.60070   0.26560   0.00839   Biso      1.000     O          -0.542114           
         O2        1.0000    0.66670   0.42010   0.04289   Biso      1.000     O          -0.580082           
         O3        1.0000    0.45470   0.54960   0.15731   Biso      1.000     O          -0.582878           
         O4        1.0000    0.38950   0.39090   0.13165   Biso      1.000     O          -0.546987           
         O5        1.0000    0.28990   0.22730   0.00797   Biso      1.000     O          -0.5364180000000001           
         O6        1.0000    0.15410   0.39870   0.02246   Biso      1.000     O          -0.48683999999999994          
         O7        1.0000    0.84590   0.60130   0.97754   Biso      1.000     O          -0.48682200000000003          
         O8        1.0000    0.65170   0.83310   0.41300   Biso      1.000     O          -0.506054           
         O9        1.0000    0.64780   0.88810   0.56980   Biso      1.000     O          -0.529054           
         O10       1.0000    0.39930   0.73440   0.99161   Biso      1.000     O          -0.542113           
         O11       1.0000    0.33330   0.57990   0.95711   Biso      1.000     O          -0.580072           
         O12       1.0000    0.54530   0.45040   0.84269   Biso      1.000     O          -0.582905           
         O13       1.0000    0.61050   0.60910   0.86835   Biso      1.000     O          -0.547003           
         O14       1.0000    0.71010   0.77270   0.99203   Biso      1.000     O          -0.536401           
         O15       1.0000    0.35220   0.11190   0.43020   Biso      1.000     O          -0.529054           
         O16       1.0000    0.34830   0.16690   0.58700   Biso      1.000     O          -0.506054 