
##########################################################################
#               Crystallographic Information Format file
#               Produced by PyCifRW module
#
#  This is a CIF file.  CIF has been adopted by the International
#  Union of Crystallography as the standard for data archiving and
#  transmission.
#
#  For information on this file format, follow the CIF links at
#  http://www.iucr.org
##########################################################################

data_image0

_cell_length_a                          8.257
_cell_length_b                          13.163
_cell_length_c                          14.238
_cell_angle_alpha                       114.261
_cell_angle_beta                        96.493
_cell_angle_gamma                       101.699
_symmetry_space_group_name_H-M          'P 1'
_symmetry_int_tables_number             1
loop_
  _symmetry_equiv_pos_as_xyz
         'x, y, z' 
loop_
  _atom_site_label
  _atom_site_occupancy
  _atom_site_fract_x
  _atom_site_fract_y
  _atom_site_fract_z
  _atom_site_thermal_displace_type
  _atom_site_B_iso_or_equiv
  _atom_site_type_symbol
  _atom_site_charge
         C1        1.0000    0.23380   0.35570   0.06090   Biso      1.000     C          -0.21856399999999998          
         C2        1.0000    0.75120   0.60560   0.23560   Biso      1.000     C          -0.082588           
         C3        1.0000    0.78320   0.75880   0.00750   Biso      1.000     C          0.22090700000000002           
         C4        1.0000    0.30310   0.39860   0.16660   Biso      1.000     C          -0.075052           
         C5        1.0000    0.99370   0.71240   0.60910   Biso      1.000     C          0.6701229999999999  
         C6        1.0000    0.03490   0.84030   0.68010   Biso      1.000     C          -0.026188           
         C7        1.0000    0.19540   0.91020   0.70610   Biso      1.000     C          -0.083036           
         C8        1.0000    0.72840   0.82720   0.96570   Biso      1.000     C          -0.219937           
         C9        1.0000    0.23140   0.02590   0.77390   Biso      1.000     C          -0.186993           
         C10       1.0000    0.10640   0.07350   0.81660   Biso      1.000     C          0.20734   
         C11       1.0000    0.21680   0.24120   0.99250   Biso      1.000     C          0.22090700000000002           
         C12       1.0000    0.94320   0.00490   0.79040   Biso      1.000     C          -0.18726199999999998          
         C13       1.0000    0.90930   0.88800   0.72070   Biso      1.000     C          -0.081184           
         C14       1.0000    0.09070   0.11200   0.27930   Biso      1.000     C          -0.081188           
         C15       1.0000    0.63590   0.66800   0.79250   Biso      1.000     C          -0.065817           
         C16       1.0000    0.55150   0.62080   0.67800   Biso      1.000     C          0.648718  
         C17       1.0000    0.04780   0.66650   0.26100   Biso      1.000     C          -0.094164           
         C18       1.0000    0.03140   0.73060   0.20610   Biso      1.000     C          -0.186915           
         C19       1.0000    0.87380   0.73200   0.16510   Biso      1.000     C          0.20847100000000002           
         C20       1.0000    0.92820   0.53870   0.34080   Biso      1.000     C          0.6831010000000001  
         C21       1.0000    0.90900   0.60520   0.27720   Biso      1.000     C          -0.030752999999999996         
         C22       1.0000    0.65370   0.78270   0.86080   Biso      1.000     C          -0.073844           
         C23       1.0000    0.76620   0.64430   0.93910   Biso      1.000     C          -0.218565           
         C24       1.0000    0.73390   0.66930   0.18000   Biso      1.000     C          -0.187776           
         C25       1.0000    0.24880   0.39440   0.76440   Biso      1.000     C          -0.082586           
         C26       1.0000    0.89360   0.92650   0.18340   Biso      1.000     C          0.207339  
         C27       1.0000    0.80460   0.08980   0.29390   Biso      1.000     C          -0.08304600000000001          
         C28       1.0000    0.07180   0.46130   0.65920   Biso      1.000     C          0.6831010000000001  
         C29       1.0000    0.09100   0.39480   0.72280   Biso      1.000     C          -0.030758999999999998         
         C30       1.0000    0.27160   0.17280   0.03430   Biso      1.000     C          -0.219937           
         C31       1.0000    0.96510   0.15970   0.31990   Biso      1.000     C          -0.026177           
         C32       1.0000    0.26610   0.33070   0.82000   Biso      1.000     C          -0.187781           
         C33       1.0000    0.12620   0.26800   0.83490   Biso      1.000     C          0.20847100000000002           
         C34       1.0000    0.00630   0.28760   0.39090   Biso      1.000     C          0.670122  
         C35       1.0000    0.05680   0.99510   0.20960   Biso      1.000     C          -0.18726099999999998          
         C36       1.0000    0.95220   0.33350   0.73900   Biso      1.000     C          -0.094158           
         C37       1.0000    0.69690   0.60140   0.83340   Biso      1.000     C          -0.075047           
         C38       1.0000    0.44850   0.37920   0.32200   Biso      1.000     C          0.648718  
         C39       1.0000    0.36410   0.33200   0.20750   Biso      1.000     C          -0.065812           
         C40       1.0000    0.34630   0.21730   0.13920   Biso      1.000     C          -0.07384500000000001          
         C41       1.0000    0.96860   0.26940   0.79390   Biso      1.000     C          -0.186911           
         C42       1.0000    0.76860   0.97410   0.22610   Biso      1.000     C          -0.18699100000000002          
         H1        1.0000    0.65860   0.92700   0.20870   Biso      1.000     H          0.124928  
         H2        1.0000    0.62640   0.66940   0.15250   Biso      1.000     H          0.125433  
         H3        1.0000    0.14220   0.96440   0.18170   Biso      1.000     H          0.131726  
         H4        1.0000    0.80190   0.59620   0.96490   Biso      1.000     H          0.11985499999999999           
         H5        1.0000    0.15520   0.66520   0.28740   Biso      1.000     H          0.10923499999999998           
         H6        1.0000    0.71940   0.12050   0.32210   Biso      1.000     H          0.120048  
         H7        1.0000    0.61470   0.83000   0.83530   Biso      1.000     H          0.117501  
         H8        1.0000    0.69110   0.52520   0.78820   Biso      1.000     H          0.108627  
         H9        1.0000    0.74250   0.90510   0.00970   Biso      1.000     H          0.116203  
         H10       1.0000    0.12760   0.77300   0.19680   Biso      1.000     H          0.12354100000000001           
         H11       1.0000    0.79890   0.84080   0.70100   Biso      1.000     H          0.117728  
         H12       1.0000    0.20110   0.15920   0.29900   Biso      1.000     H          0.117728  
         H13       1.0000    0.25750   0.09490   0.99030   Biso      1.000     H          0.116203  
         H14       1.0000    0.34480   0.43710   0.75520   Biso      1.000     H          0.11776600000000001           
         H15       1.0000    0.37360   0.33060   0.84750   Biso      1.000     H          0.125434  
         H16       1.0000    0.87240   0.22700   0.80320   Biso      1.000     H          0.12354100000000001           
         H17       1.0000    0.84480   0.33480   0.71260   Biso      1.000     H          0.10923499999999998           
         H18       1.0000    0.38530   0.17000   0.16470   Biso      1.000     H          0.117501  
         H19       1.0000    0.65520   0.56290   0.24480   Biso      1.000     H          0.11776600000000001           
         H20       1.0000    0.85780   0.03560   0.81830   Biso      1.000     H          0.131726  
         H21       1.0000    0.34140   0.07300   0.79130   Biso      1.000     H          0.124928  
         H22       1.0000    0.28060   0.87950   0.67790   Biso      1.000     H          0.120048  
         H23       1.0000    0.30890   0.47480   0.21180   Biso      1.000     H          0.108627  
         H24       1.0000    0.19810   0.40380   0.03510   Biso      1.000     H          0.11985499999999999           
         N1        1.0000    0.14110   0.19510   0.88480   Biso      1.000     N          -0.216331           
         N2        1.0000    0.85890   0.80490   0.11520   Biso      1.000     N          -0.216331           
         O1        1.0000    0.80330   0.50460   0.37190   Biso      1.000     O          -0.652254           
         O2        1.0000    0.07040   0.52410   0.35840   Biso      1.000     O          -0.714306           
         O3        1.0000    0.55200   0.52160   0.61320   Biso      1.000     O          -0.767941           
         O4        1.0000    0.48040   0.68460   0.65260   Biso      1.000     O          -0.664733           
         O5        1.0000    0.88680   0.32730   0.42460   Biso      1.000     O          -0.72418  
         O6        1.0000    0.15940   0.34590   0.41330   Biso      1.000     O          -0.647634           
         O7        1.0000    0.84060   0.65410   0.58670   Biso      1.000     O          -0.647634           
         O8        1.0000    0.11320   0.67270   0.57540   Biso      1.000     O          -0.72418  
         O9        1.0000    0.51960   0.31540   0.34740   Biso      1.000     O          -0.664733           
         O10       1.0000    0.44800   0.47840   0.38680   Biso      1.000     O          -0.767941           
         O11       1.0000    0.92960   0.47590   0.64160   Biso      1.000     O          -0.714306           
         O12       1.0000    0.19670   0.49540   0.62810   Biso      1.000     O          -0.652254           
         Tb1       1.0000    0.73067   0.45022   0.50082   Biso      1.000     Tb          2.116196  
         Tb2       1.0000    0.26933   0.54978   0.49918   Biso      1.000     Tb          2.116196 