
##########################################################################
#               Crystallographic Information Format file
#               Produced by PyCifRW module
#
#  This is a CIF file.  CIF has been adopted by the International
#  Union of Crystallography as the standard for data archiving and
#  transmission.
#
#  For information on this file format, follow the CIF links at
#  http://www.iucr.org
##########################################################################

data_image0

_cell_length_a                          7.7334
_cell_length_b                          25.833
_cell_length_c                          12.0623
_cell_angle_alpha                       90
_cell_angle_beta                        106.854
_cell_angle_gamma                       90
_symmetry_space_group_name_H-M          'P 1'
_symmetry_int_tables_number             1
loop_
  _symmetry_equiv_pos_as_xyz
         'x, y, z' 
loop_
  _atom_site_label
  _atom_site_occupancy
  _atom_site_fract_x
  _atom_site_fract_y
  _atom_site_fract_z
  _atom_site_thermal_displace_type
  _atom_site_B_iso_or_equiv
  _atom_site_type_symbol
  _atom_site_charge
         Ag1       1.0000    0.50606   0.60822   0.67124   Biso      1.000     Ag          0.174581  
         Ag2       1.0000    0.49394   0.39178   0.32876   Biso      1.000     Ag          0.17459000000000002           
         Ag3       1.0000    0.50606   0.89178   0.17124   Biso      1.000     Ag          0.174585  
         Ag4       1.0000    0.13537   0.35305   0.79111   Biso      1.000     Ag          0.170681  
         Ag5       1.0000    0.86463   0.85305   0.70889   Biso      1.000     Ag          0.170681  
         Ag6       1.0000    0.13537   0.14695   0.29111   Biso      1.000     Ag          0.170673  
         Ag7       1.0000    0.49394   0.10822   0.82876   Biso      1.000     Ag          0.17457999999999999           
         Ag8       1.0000    0.86463   0.64695   0.20889   Biso      1.000     Ag          0.170675  
         C1        1.0000    0.33760   0.25609   0.10750   Biso      1.000     C          -0.051263           
         C2        1.0000    0.94980   0.04580   0.17640   Biso      1.000     C          -0.041716           
         C3        1.0000    0.81960   0.11410   0.06020   Biso      1.000     C          0.579952  
         C4        1.0000    0.72250   0.03167   0.00130   Biso      1.000     C          -0.022806           
         C5        1.0000    0.61870   0.70854   0.80350   Biso      1.000     C          -0.048851           
         C6        1.0000    0.84390   0.01083   0.09800   Biso      1.000     C          -0.048239           
         C7        1.0000    0.66240   0.74391   0.89250   Biso      1.000     C          -0.051271000000000004         
         C8        1.0000    0.72160   0.72437   0.00410   Biso      1.000     C          -0.033098           
         C9        1.0000    0.38130   0.29146   0.19650   Biso      1.000     C          -0.048852           
         C10       1.0000    0.68390   0.64100   0.93260   Biso      1.000     C          0.5928260000000001  
         C11       1.0000    0.05020   0.95420   0.82360   Biso      1.000     C          -0.041718           
         C12       1.0000    0.18040   0.88590   0.93980   Biso      1.000     C          0.5799529999999999  
         C13       1.0000    0.27750   0.96833   0.99870   Biso      1.000     C          -0.022807           
         C14       1.0000    0.31610   0.35900   0.06740   Biso      1.000     C          0.592823  
         C15       1.0000    0.27840   0.27563   0.99590   Biso      1.000     C          -0.033096           
         C16       1.0000    0.15610   0.98917   0.90200   Biso      1.000     C          -0.048237999999999996         
         C17       1.0000    0.68390   0.85900   0.43260   Biso      1.000     C          0.592825  
         C18       1.0000    0.31610   0.14100   0.56740   Biso      1.000     C          0.592825  
         C19       1.0000    0.72160   0.77563   0.50410   Biso      1.000     C          -0.0331   
         C20       1.0000    0.27840   0.22437   0.49590   Biso      1.000     C          -0.033095           
         C21       1.0000    0.33760   0.24391   0.60750   Biso      1.000     C          -0.051265           
         C22       1.0000    0.38130   0.20854   0.69650   Biso      1.000     C          -0.048849000000000004         
         C23       1.0000    0.15610   0.51083   0.40200   Biso      1.000     C          -0.04824  
         C24       1.0000    0.27750   0.53167   0.49870   Biso      1.000     C          -0.022807           
         C25       1.0000    0.18040   0.61410   0.43980   Biso      1.000     C          0.579954  
         C26       1.0000    0.94980   0.45420   0.67640   Biso      1.000     C          -0.04172  
         C27       1.0000    0.81960   0.38590   0.56020   Biso      1.000     C          0.579951  
         C28       1.0000    0.05020   0.54580   0.32360   Biso      1.000     C          -0.041717000000000004         
         C29       1.0000    0.72250   0.46833   0.50130   Biso      1.000     C          -0.022808000000000002         
         C30       1.0000    0.66240   0.75609   0.39250   Biso      1.000     C          -0.051267999999999994         
         C31       1.0000    0.84390   0.48917   0.59800   Biso      1.000     C          -0.048237           
         C32       1.0000    0.61870   0.79146   0.30350   Biso      1.000     C          -0.048857           
         H1        1.0000    0.73540   0.32330   0.47710   Biso      1.000     H          0.348866  
         H2        1.0000    0.03180   0.46690   0.74330   Biso      1.000     H          0.07115   
         H3        1.0000    0.33810   0.06910   0.60320   Biso      1.000     H          0.344264  
         H4        1.0000    0.24760   0.25270   0.93390   Biso      1.000     H          0.071992  
         H5        1.0000    0.64790   0.00940   0.94770   Biso      1.000     H          0.08194   
         H6        1.0000    0.64790   0.49060   0.44770   Biso      1.000     H          0.08194   
         H7        1.0000    0.27110   0.07960   0.47650   Biso      1.000     H          0.347062  
         H8        1.0000    0.88010   0.31430   0.58750   Biso      1.000     H          0.350666  
         H9        1.0000    0.41750   0.27940   0.27240   Biso      1.000     H          0.071576  
         H10       1.0000    0.41750   0.22060   0.77240   Biso      1.000     H          0.071575  
         H11       1.0000    0.03180   0.03310   0.24330   Biso      1.000     H          0.07115   
         H12       1.0000    0.88010   0.18570   0.08750   Biso      1.000     H          0.350666  
         H13       1.0000    0.27110   0.42040   0.97650   Biso      1.000     H          0.347059  
         H14       1.0000    0.73540   0.17670   0.97710   Biso      1.000     H          0.348866  
         H15       1.0000    0.33810   0.43090   0.10320   Biso      1.000     H          0.344262  
         H16       1.0000    0.96820   0.96690   0.75670   Biso      1.000     H          0.071149  
         H17       1.0000    0.66190   0.56910   0.89680   Biso      1.000     H          0.34426100000000004           
         H18       1.0000    0.75240   0.74730   0.06610   Biso      1.000     H          0.071992  
         H19       1.0000    0.58250   0.77940   0.22760   Biso      1.000     H          0.071576  
         H20       1.0000    0.72890   0.92040   0.52350   Biso      1.000     H          0.347063  
         H21       1.0000    0.66190   0.93090   0.39680   Biso      1.000     H          0.344264  
         H22       1.0000    0.72890   0.57960   0.02350   Biso      1.000     H          0.347061  
         H23       1.0000    0.75240   0.75270   0.56610   Biso      1.000     H          0.071992  
         H24       1.0000    0.96820   0.53310   0.25670   Biso      1.000     H          0.07115   
         H25       1.0000    0.11990   0.81430   0.91250   Biso      1.000     H          0.350669  
         H26       1.0000    0.35210   0.50940   0.55230   Biso      1.000     H          0.081939  
         H27       1.0000    0.35210   0.99060   0.05230   Biso      1.000     H          0.081938  
         H28       1.0000    0.24760   0.24730   0.43390   Biso      1.000     H          0.071991  
         H29       1.0000    0.11990   0.68570   0.41250   Biso      1.000     H          0.350668  
         H30       1.0000    0.26460   0.67670   0.52290   Biso      1.000     H          0.34886799999999996           
         H31       1.0000    0.26460   0.82330   0.02290   Biso      1.000     H          0.348867  
         H32       1.0000    0.58250   0.72060   0.72760   Biso      1.000     H          0.071575  
         I1        1.0000    0.87067   0.56861   0.62684   Biso      1.000     I          -0.034061           
         I2        1.0000    0.62003   0.82300   0.86107   Biso      1.000     I          -0.057277           
         I3        1.0000    0.62003   0.67700   0.36107   Biso      1.000     I          -0.05727  
         I4        1.0000    0.37997   0.32300   0.63893   Biso      1.000     I          -0.05728  
         I5        1.0000    0.12933   0.43139   0.37316   Biso      1.000     I          -0.034066           
         I6        1.0000    0.37997   0.17700   0.13893   Biso      1.000     I          -0.057274           
         I7        1.0000    0.12933   0.06861   0.87316   Biso      1.000     I          -0.034062           
         I8        1.0000    0.87067   0.93139   0.12684   Biso      1.000     I          -0.034068           
         N1        1.0000    0.73570   0.67361   0.02520   Biso      1.000     N          -0.34581300000000004          
         N2        1.0000    0.06130   0.59685   0.34050   Biso      1.000     N          -0.341904           
         N3        1.0000    0.18940   0.66485   0.46090   Biso      1.000     N          -0.749152           
         N4        1.0000    0.37340   0.34207   0.17800   Biso      1.000     N          -0.33526999999999996          
         N5        1.0000    0.37340   0.15793   0.67800   Biso      1.000     N          -0.335271           
         N6        1.0000    0.29220   0.58244   0.51830   Biso      1.000     N          -0.344342           
         N7        1.0000    0.29220   0.91756   0.01830   Biso      1.000     N          -0.344339           
         N8        1.0000    0.30740   0.09073   0.54660   Biso      1.000     N          -0.751757           
         N9        1.0000    0.26430   0.17361   0.47480   Biso      1.000     N          -0.34581300000000004          
         N10       1.0000    0.18940   0.83515   0.96090   Biso      1.000     N          -0.749151           
         N11       1.0000    0.06130   0.90315   0.84050   Biso      1.000     N          -0.341901           
         N12       1.0000    0.73570   0.82639   0.52520   Biso      1.000     N          -0.34581  
         N13       1.0000    0.69260   0.90927   0.45340   Biso      1.000     N          -0.75176  
         N14       1.0000    0.93870   0.09685   0.15950   Biso      1.000     N          -0.341905           
         N15       1.0000    0.81060   0.16485   0.03910   Biso      1.000     N          -0.749149           
         N16       1.0000    0.62660   0.84207   0.32200   Biso      1.000     N          -0.335268           
         N17       1.0000    0.70780   0.41756   0.48170   Biso      1.000     N          -0.34434000000000003          
         N18       1.0000    0.70780   0.08244   0.98170   Biso      1.000     N          -0.344343           
         N19       1.0000    0.81060   0.33515   0.53910   Biso      1.000     N          -0.749146           
         N20       1.0000    0.93870   0.40315   0.65950   Biso      1.000     N          -0.341901           
         N21       1.0000    0.30740   0.40927   0.04660   Biso      1.000     N          -0.7517590000000001           
         N22       1.0000    0.62660   0.65793   0.82200   Biso      1.000     N          -0.335271           
         N23       1.0000    0.69260   0.59073   0.95340   Biso      1.000     N          -0.751758           
         N24       1.0000    0.26430   0.32639   0.97480   Biso      1.000     N          -0.34581100000000004 