
##########################################################################
#               Crystallographic Information Format file
#               Produced by PyCifRW module
#
#  This is a CIF file.  CIF has been adopted by the International
#  Union of Crystallography as the standard for data archiving and
#  transmission.
#
#  For information on this file format, follow the CIF links at
#  http://www.iucr.org
##########################################################################

data_image0

_cell_length_a                          12.3845
_cell_length_b                          12.4944
_cell_length_c                          12.4944
_cell_angle_alpha                       75.7813
_cell_angle_beta                        60.2905
_cell_angle_gamma                       60.2904
_symmetry_space_group_name_H-M          'P 1'
_symmetry_int_tables_number             1
loop_
  _symmetry_equiv_pos_as_xyz
         'x, y, z' 
loop_
  _atom_site_label
  _atom_site_occupancy
  _atom_site_fract_x
  _atom_site_fract_y
  _atom_site_fract_z
  _atom_site_thermal_displace_type
  _atom_site_B_iso_or_equiv
  _atom_site_type_symbol
  _atom_site_charge
         C1        1.0000    0.70183   0.39476   0.46692   Biso      1.000     C          -0.148842           
         C2        1.0000    0.95706   0.72226   0.44402   Biso      1.000     C          0.651595  
         C3        1.0000    0.83125   0.60524   0.46692   Biso      1.000     C          -0.151637           
         C4        1.0000    0.94271   0.60663   0.46887   Biso      1.000     C          -0.018793           
         C5        1.0000    0.92932   0.94402   0.77774   Biso      1.000     C          0.650518  
         C6        1.0000    0.68649   0.96692   0.89476   Biso      1.000     C          -0.140546           
         C7        1.0000    0.79934   0.96887   0.89337   Biso      1.000     C          -0.018605           
         C8        1.0000    0.01821   0.39337   0.53113   Biso      1.000     C          -0.018900999999999998         
         C9        1.0000    0.65108   0.05598   0.22226   Biso      1.000     C          0.6412680000000001  
         C10       1.0000    0.66158   0.03113   0.10663   Biso      1.000     C          -0.022875           
         C11       1.0000    0.29294   0.05598   0.77774   Biso      1.000     C          0.64695   
         C12       1.0000    0.41875   0.03308   0.89476   Biso      1.000     C          -0.143035           
         C13       1.0000    0.30729   0.03113   0.89337   Biso      1.000     C          -0.019466999999999998         
         C14       1.0000    0.12666   0.94402   0.22226   Biso      1.000     C          0.643777  
         C15       1.0000    0.34659   0.96692   0.10524   Biso      1.000     C          -0.151509           
         C16       1.0000    0.54817   0.03308   0.10524   Biso      1.000     C          -0.152442           
         C17       1.0000    0.23179   0.96887   0.10663   Biso      1.000     C          -0.021502           
         C18       1.0000    0.90341   0.39476   0.53308   Biso      1.000     C          -0.15269000000000002          
         C19       1.0000    0.78690   0.00000   0.00000   Biso      1.000     C          -0.108576           
         C20       1.0000    0.46310   0.50000   0.50000   Biso      1.000     C          -0.104125           
         C21       1.0000    0.68900   0.50000   0.50000   Biso      1.000     C          0.07532799999999999           
         C22       1.0000    0.21310   0.00000   0.00000   Biso      1.000     C          -0.10878499999999999          
         C23       1.0000    0.43900   0.00000   0.00000   Biso      1.000     C          0.072476  
         C24       1.0000    0.12334   0.27774   0.55598   Biso      1.000     C          0.642355  
         C25       1.0000    0.56100   0.00000   0.00000   Biso      1.000     C          0.072236  
         C26       1.0000    0.59892   0.27774   0.44402   Biso      1.000     C          0.655196  
         C27       1.0000    0.81100   0.50000   0.50000   Biso      1.000     C          0.076632  
         C28       1.0000    0.45066   0.60663   0.53113   Biso      1.000     C          -0.016547           
         C29       1.0000    0.56351   0.60524   0.53308   Biso      1.000     C          -0.155147           
         C30       1.0000    0.32068   0.72226   0.55598   Biso      1.000     C          0.646698  
         C31       1.0000    0.58842   0.39337   0.46887   Biso      1.000     C          -0.019864           
         C32       1.0000    0.03690   0.50000   0.50000   Biso      1.000     C          -0.103992           
         H1        1.0000    0.12500   0.08053   0.44174   Biso      1.000     H          0.386232  
         H2        1.0000    0.87704   0.08053   0.47768   Biso      1.000     H          0.374348  
         H3        1.0000    0.47672   0.91984   0.43124   Biso      1.000     H          0.36393400000000004           
         H4        1.0000    0.62500   0.91947   0.51824   Biso      1.000     H          0.393253  
         H5        1.0000    0.13640   0.00000   0.00000   Biso      1.000     H          0.13485999999999998           
         H6        1.0000    0.38640   0.50000   0.50000   Biso      1.000     H          0.135248  
         H7        1.0000    0.76900   0.67710   0.44270   Biso      1.000     H          0.11434200000000001           
         H8        1.0000    0.69610   0.94270   0.82290   Biso      1.000     H          0.129394  
         H9        1.0000    0.46170   0.05730   0.17710   Biso      1.000     H          0.121715  
         H10       1.0000    0.48100   0.05730   0.82290   Biso      1.000     H          0.12965   
         H11       1.0000    0.88880   0.32290   0.55730   Biso      1.000     H          0.1212    
         H12       1.0000    0.78830   0.32290   0.44270   Biso      1.000     H          0.11556   
         H13       1.0000    0.55390   0.67710   0.55730   Biso      1.000     H          0.119251  
         H14       1.0000    0.11360   0.50000   0.50000   Biso      1.000     H          0.135568  
         H15       1.0000    0.86360   0.00000   0.00000   Biso      1.000     H          0.134644  
         H16       1.0000    0.36120   0.94270   0.17710   Biso      1.000     H          0.122897  
         O1        1.0000    0.00700   0.98412   0.22974   Biso      1.000     O          -0.633451           
         O2        1.0000    0.62500   0.00204   0.49796   Biso      1.000     O          -1.019313           
         O3        1.0000    0.12500   0.99796   0.50204   Biso      1.000     O          -1.0193459999999999           
         O4        1.0000    0.87704   0.99796   0.49796   Biso      1.000     O          -1.0006680000000001           
         O5        1.0000    0.37296   0.00204   0.50204   Biso      1.000     O          -0.997677           
         O6        1.0000    0.24112   0.72974   0.51588   Biso      1.000     O          -0.621009           
         O7        1.0000    0.29660   0.80598   0.61604   Biso      1.000     O          -0.642256           
         O8        1.0000    0.48674   0.27026   0.48412   Biso      1.000     O          -0.6069859999999999           
         O9        1.0000    0.71862   0.19402   0.38396   Biso      1.000     O          -0.646043           
         O10       1.0000    0.16264   0.88396   0.30598   Biso      1.000     O          -0.6516109999999999           
         O11       1.0000    0.00888   0.98412   0.77026   Biso      1.000     O          -0.6240859999999999           
         O12       1.0000    0.35258   0.11604   0.69402   Biso      1.000     O          -0.6379600000000001           
         O13       1.0000    0.76326   0.01588   0.22974   Biso      1.000     O          -0.6293340000000001           
         O14       1.0000    0.53138   0.11604   0.30598   Biso      1.000     O          -0.652389           
         O15       1.0000    0.95340   0.88396   0.69402   Biso      1.000     O          -0.635882           
         O16       1.0000    0.02914   0.72974   0.48412   Biso      1.000     O          -0.6111979999999999           
         O17       1.0000    0.89742   0.80598   0.38396   Biso      1.000     O          -0.644462           
         O18       1.0000    0.24300   0.27026   0.51588   Biso      1.000     O          -0.614224           
         O19       1.0000    0.08736   0.19402   0.61604   Biso      1.000     O          -0.642251           
         O20       1.0000    0.22086   0.01588   0.77026   Biso      1.000     O          -0.625637           
         Sc1       1.0000    0.43722   0.12556   0.50000   Biso      1.000     Sc          1.8430939999999998  
         Sc2       1.0000    0.06278   0.87444   0.50000   Biso      1.000     Sc          1.868022  
         Sc3       1.0000    0.81278   0.00000   0.37444   Biso      1.000     Sc          1.8510060000000002  
         Sc4       1.0000    0.18722   0.00000   0.62556   Biso      1.000     Sc          1.864414 