
##########################################################################
#               Crystallographic Information Format file
#               Produced by PyCifRW module
#
#  This is a CIF file.  CIF has been adopted by the International
#  Union of Crystallography as the standard for data archiving and
#  transmission.
#
#  For information on this file format, follow the CIF links at
#  http://www.iucr.org
##########################################################################

data_image0

_cell_length_a                          7.1635
_cell_length_b                          18.607
_cell_length_c                          18.607
_cell_angle_alpha                       90
_cell_angle_beta                        90
_cell_angle_gamma                       90
_symmetry_space_group_name_H-M          'P 1'
_symmetry_int_tables_number             1
loop_
  _symmetry_equiv_pos_as_xyz
         'x, y, z' 
loop_
  _atom_site_label
  _atom_site_occupancy
  _atom_site_fract_x
  _atom_site_fract_y
  _atom_site_fract_z
  _atom_site_thermal_displace_type
  _atom_site_B_iso_or_equiv
  _atom_site_type_symbol
  _atom_site_charge
         C1        1.0000    0.34160   0.01420   0.96320   Biso      1.000     C          -0.152927           
         C2        1.0000    0.69510   0.18180   0.57780   Biso      1.000     C          -0.5148010000000001           
         C3        1.0000    0.65840   0.98580   0.03680   Biso      1.000     C          -0.152926           
         C4        1.0000    0.36840   0.87790   0.16260   Biso      1.000     C          0.22878099999999998           
         C5        1.0000    0.19510   0.92220   0.18180   Biso      1.000     C          -0.5148010000000001           
         C6        1.0000    0.65840   0.51420   0.46320   Biso      1.000     C          -0.152926           
         C7        1.0000    0.36840   0.62210   0.33740   Biso      1.000     C          0.22878099999999998           
         C8        1.0000    0.19510   0.57780   0.31820   Biso      1.000     C          -0.5148010000000001           
         C9        1.0000    0.65840   0.46320   0.51420   Biso      1.000     C          -0.152887           
         C10       1.0000    0.36840   0.33740   0.62210   Biso      1.000     C          0.228783  
         C11       1.0000    0.19510   0.31820   0.57780   Biso      1.000     C          -0.5148   
         C12       1.0000    0.65840   0.03680   0.98580   Biso      1.000     C          -0.152887           
         C13       1.0000    0.36840   0.16260   0.87790   Biso      1.000     C          0.228782  
         C14       1.0000    0.19510   0.18180   0.92220   Biso      1.000     C          -0.5148010000000001           
         C15       1.0000    0.86840   0.16260   0.62210   Biso      1.000     C          0.228783  
         C16       1.0000    0.15840   0.98580   0.46320   Biso      1.000     C          -0.152926           
         C17       1.0000    0.69510   0.92220   0.31820   Biso      1.000     C          -0.5148010000000001           
         C18       1.0000    0.15840   0.51420   0.03680   Biso      1.000     C          -0.152927           
         C19       1.0000    0.86840   0.62210   0.16260   Biso      1.000     C          0.22878099999999998           
         C20       1.0000    0.69510   0.57780   0.18180   Biso      1.000     C          -0.5148010000000001           
         C21       1.0000    0.84160   0.53680   0.01420   Biso      1.000     C          -0.152927           
         C22       1.0000    0.13160   0.66260   0.12210   Biso      1.000     C          0.228782  
         C23       1.0000    0.30490   0.68180   0.07780   Biso      1.000     C          -0.5148010000000001           
         C24       1.0000    0.84160   0.96320   0.48580   Biso      1.000     C          -0.152927           
         C25       1.0000    0.13160   0.83740   0.37790   Biso      1.000     C          0.228782  
         C26       1.0000    0.30490   0.81820   0.42220   Biso      1.000     C          -0.5148010000000001           
         C27       1.0000    0.63160   0.12210   0.83740   Biso      1.000     C          0.22878099999999998           
         C28       1.0000    0.80490   0.07780   0.81820   Biso      1.000     C          -0.5148010000000001           
         C29       1.0000    0.34160   0.48580   0.53680   Biso      1.000     C          -0.152926           
         C30       1.0000    0.86840   0.87790   0.33740   Biso      1.000     C          0.22878099999999998           
         C31       1.0000    0.15840   0.03680   0.51420   Biso      1.000     C          -0.152887           
         C32       1.0000    0.69510   0.31820   0.92220   Biso      1.000     C          -0.5148010000000001           
         C33       1.0000    0.86840   0.33740   0.87790   Biso      1.000     C          0.228782  
         C34       1.0000    0.00000   0.44640   0.94640   Biso      1.000     C          0.111125  
         C35       1.0000    0.00000   0.39010   0.89010   Biso      1.000     C          -0.19572  
         C36       1.0000    0.00000   0.05360   0.55360   Biso      1.000     C          0.11112799999999999           
         C37       1.0000    0.00000   0.10990   0.60990   Biso      1.000     C          -0.19572  
         C38       1.0000    0.50000   0.94640   0.05360   Biso      1.000     C          0.111132  
         C39       1.0000    0.50000   0.89010   0.10990   Biso      1.000     C          -0.19572  
         C40       1.0000    0.50000   0.55360   0.44640   Biso      1.000     C          0.111132  
         C41       1.0000    0.50000   0.60990   0.39010   Biso      1.000     C          -0.19572  
         C42       1.0000    0.00000   0.55360   0.05360   Biso      1.000     C          0.11113800000000001           
         C43       1.0000    0.00000   0.60990   0.10990   Biso      1.000     C          -0.195718           
         C44       1.0000    0.00000   0.94640   0.44640   Biso      1.000     C          0.11113800000000001           
         C45       1.0000    0.00000   0.89010   0.39010   Biso      1.000     C          -0.195718           
         C46       1.0000    0.50000   0.05360   0.94640   Biso      1.000     C          0.111134  
         C47       1.0000    0.50000   0.10990   0.89010   Biso      1.000     C          -0.195718           
         C48       1.0000    0.50000   0.44640   0.55360   Biso      1.000     C          0.111134  
         C49       1.0000    0.50000   0.39010   0.60990   Biso      1.000     C          -0.19572  
         C50       1.0000    0.34160   0.53680   0.48580   Biso      1.000     C          -0.152885           
         C51       1.0000    0.63160   0.66260   0.37790   Biso      1.000     C          0.228783  
         C52       1.0000    0.80490   0.68180   0.42220   Biso      1.000     C          -0.5148010000000001           
         C53       1.0000    0.34160   0.96320   0.01420   Biso      1.000     C          -0.152885           
         C54       1.0000    0.63160   0.83740   0.12210   Biso      1.000     C          0.228783  
         C55       1.0000    0.80490   0.81820   0.07780   Biso      1.000     C          -0.5148010000000001           
         C56       1.0000    0.84160   0.01420   0.53680   Biso      1.000     C          -0.152884           
         C57       1.0000    0.13160   0.12210   0.66260   Biso      1.000     C          0.228782  
         C58       1.0000    0.30490   0.07780   0.68180   Biso      1.000     C          -0.5148010000000001           
         C59       1.0000    0.84160   0.48580   0.96320   Biso      1.000     C          -0.152884           
         C60       1.0000    0.13160   0.37790   0.83740   Biso      1.000     C          0.228783  
         C61       1.0000    0.30490   0.42220   0.81820   Biso      1.000     C          -0.5148010000000001           
         C62       1.0000    0.15840   0.46320   0.98580   Biso      1.000     C          -0.152884           
         C63       1.0000    0.63160   0.37790   0.66260   Biso      1.000     C          0.228782  
         C64       1.0000    0.80490   0.42220   0.68180   Biso      1.000     C          -0.5148010000000001           
         Co1       1.0000    0.75000   0.25000   0.75000   Biso      1.000     Co          0.6483270000000001  
         Co2       1.0000    0.25000   0.75000   0.25000   Biso      1.000     Co          0.6483270000000001  
         Co3       1.0000    0.75000   0.75000   0.25000   Biso      1.000     Co          0.6483270000000001  
         Co4       1.0000    0.25000   0.25000   0.75000   Biso      1.000     Co          0.6483270000000001  
         H1        1.0000    0.81640   0.64840   0.46270   Biso      1.000     H          0.161327  
         H2        1.0000    0.58370   0.60820   0.17840   Biso      1.000     H          0.158412  
         H3        1.0000    0.68360   0.53730   0.14840   Biso      1.000     H          0.161327  
         H4        1.0000    0.70710   0.55950   0.23100   Biso      1.000     H          0.173256  
         H5        1.0000    0.27070   0.52360   0.06230   Biso      1.000     H          0.109767  
         H6        1.0000    0.58370   0.89180   0.32160   Biso      1.000     H          0.158412  
         H7        1.0000    0.68360   0.96270   0.35160   Biso      1.000     H          0.161327  
         H8        1.0000    0.27070   0.97640   0.43770   Biso      1.000     H          0.109767  
         H9        1.0000    0.72930   0.56230   0.02360   Biso      1.000     H          0.109767  
         H10       1.0000    0.08370   0.17840   0.89180   Biso      1.000     H          0.158412  
         H11       1.0000    0.18360   0.14840   0.96270   Biso      1.000     H          0.161328  
         H12       1.0000    0.20710   0.23100   0.94050   Biso      1.000     H          0.173256  
         H13       1.0000    0.77070   0.06230   0.97640   Biso      1.000     H          0.10976500000000002           
         H14       1.0000    0.91630   0.67840   0.39180   Biso      1.000     H          0.158412  
         H15       1.0000    0.29290   0.73100   0.05950   Biso      1.000     H          0.173256  
         H16       1.0000    0.41630   0.67840   0.10820   Biso      1.000     H          0.158412  
         H17       1.0000    0.08370   0.32160   0.60820   Biso      1.000     H          0.158412  
         H18       1.0000    0.72930   0.93770   0.47640   Biso      1.000     H          0.109767  
         H19       1.0000    0.29290   0.76900   0.44050   Biso      1.000     H          0.173256  
         H20       1.0000    0.31640   0.85160   0.46270   Biso      1.000     H          0.161327  
         H21       1.0000    0.41630   0.82160   0.39180   Biso      1.000     H          0.158412  
         H22       1.0000    0.22930   0.02360   0.93770   Biso      1.000     H          0.109767  
         H23       1.0000    0.79290   0.05950   0.76900   Biso      1.000     H          0.173256  
         H24       1.0000    0.81640   0.03730   0.85160   Biso      1.000     H          0.161327  
         H25       1.0000    0.91630   0.10820   0.82160   Biso      1.000     H          0.158412  
         H26       1.0000    0.22930   0.47640   0.56230   Biso      1.000     H          0.109767  
         H27       1.0000    0.79290   0.44050   0.73100   Biso      1.000     H          0.173256  
         H28       1.0000    0.81640   0.46270   0.64840   Biso      1.000     H          0.161327  
         H29       1.0000    0.91630   0.39180   0.67840   Biso      1.000     H          0.158412  
         H30       1.0000    0.31640   0.64840   0.03730   Biso      1.000     H          0.161327  
         H31       1.0000    0.18360   0.35160   0.53730   Biso      1.000     H          0.161327  
         H32       1.0000    0.70710   0.94050   0.26900   Biso      1.000     H          0.173256  
         H33       1.0000    0.77070   0.43770   0.52360   Biso      1.000     H          0.10976500000000002           
         H34       1.0000    0.79290   0.73100   0.44050   Biso      1.000     H          0.173256  
         H35       1.0000    0.22930   0.56230   0.47640   Biso      1.000     H          0.10976500000000002           
         H36       1.0000    0.22930   0.93770   0.02360   Biso      1.000     H          0.10976500000000002           
         H37       1.0000    0.79290   0.76900   0.05950   Biso      1.000     H          0.173256  
         H38       1.0000    0.81640   0.85160   0.03730   Biso      1.000     H          0.161327  
         H39       1.0000    0.91630   0.82160   0.10820   Biso      1.000     H          0.158412  
         H40       1.0000    0.72930   0.02360   0.56230   Biso      1.000     H          0.10976500000000002           
         H41       1.0000    0.20710   0.26900   0.55950   Biso      1.000     H          0.173256  
         H42       1.0000    0.31640   0.03730   0.64840   Biso      1.000     H          0.161327  
         H43       1.0000    0.41630   0.10820   0.67840   Biso      1.000     H          0.158412  
         H44       1.0000    0.72930   0.47640   0.93770   Biso      1.000     H          0.10976500000000002           
         H45       1.0000    0.29290   0.44050   0.76900   Biso      1.000     H          0.173256  
         H46       1.0000    0.31640   0.46270   0.85160   Biso      1.000     H          0.161327  
         H47       1.0000    0.41630   0.39180   0.82160   Biso      1.000     H          0.158412  
         H48       1.0000    0.27070   0.43770   0.97640   Biso      1.000     H          0.10976500000000002           
         H49       1.0000    0.29290   0.05950   0.73100   Biso      1.000     H          0.173256  
         H50       1.0000    0.68360   0.35160   0.96270   Biso      1.000     H          0.161327  
         H51       1.0000    0.70710   0.26900   0.94050   Biso      1.000     H          0.173256  
         H52       1.0000    0.08370   0.60820   0.32160   Biso      1.000     H          0.158412  
         H53       1.0000    0.18360   0.53730   0.35160   Biso      1.000     H          0.161327  
         H54       1.0000    0.20710   0.55950   0.26900   Biso      1.000     H          0.173256  
         H55       1.0000    0.77070   0.52360   0.43770   Biso      1.000     H          0.109767  
         H56       1.0000    0.18360   0.96270   0.14840   Biso      1.000     H          0.161327  
         H57       1.0000    0.20710   0.94050   0.23100   Biso      1.000     H          0.173256  
         H58       1.0000    0.08370   0.89180   0.17840   Biso      1.000     H          0.158412  
         H59       1.0000    0.77070   0.97640   0.06230   Biso      1.000     H          0.109767  
         H60       1.0000    0.58370   0.17840   0.60820   Biso      1.000     H          0.158412  
         H61       1.0000    0.68360   0.14840   0.53730   Biso      1.000     H          0.161327  
         H62       1.0000    0.70710   0.23100   0.55950   Biso      1.000     H          0.173256  
         H63       1.0000    0.27070   0.06230   0.52360   Biso      1.000     H          0.10976500000000002           
         H64       1.0000    0.58370   0.32160   0.89180   Biso      1.000     H          0.158412  
         N1        1.0000    0.41620   0.67780   0.29640   Biso      1.000     N          -0.283629           
         N2        1.0000    0.08380   0.32220   0.79640   Biso      1.000     N          -0.283629           
         N3        1.0000    0.91620   0.29640   0.82220   Biso      1.000     N          -0.283622           
         N4        1.0000    0.91620   0.20360   0.67780   Biso      1.000     N          -0.28363299999999997          
         N5        1.0000    0.41620   0.82220   0.20360   Biso      1.000     N          -0.283629           
         N6        1.0000    0.08380   0.17780   0.70360   Biso      1.000     N          -0.283618           
         N7        1.0000    0.41620   0.29640   0.67780   Biso      1.000     N          -0.28363299999999997          
         N8        1.0000    0.58380   0.32220   0.70360   Biso      1.000     N          -0.283618           
         N9        1.0000    0.91620   0.82220   0.29640   Biso      1.000     N          -0.283629           
         N10       1.0000    0.91620   0.67780   0.20360   Biso      1.000     N          -0.283629           
         N11       1.0000    0.08380   0.70360   0.17780   Biso      1.000     N          -0.283622           
         N12       1.0000    0.08380   0.79640   0.32220   Biso      1.000     N          -0.283622           
         N13       1.0000    0.58380   0.17780   0.79640   Biso      1.000     N          -0.283629           
         N14       1.0000    0.58380   0.79640   0.17780   Biso      1.000     N          -0.283622           
         N15       1.0000    0.41620   0.20360   0.82220   Biso      1.000     N          -0.283622           
         N16       1.0000    0.58380   0.70360   0.32220   Biso      1.000     N          -0.283622 