
##########################################################################
#               Crystallographic Information Format file
#               Produced by PyCifRW module
#
#  This is a CIF file.  CIF has been adopted by the International
#  Union of Crystallography as the standard for data archiving and
#  transmission.
#
#  For information on this file format, follow the CIF links at
#  http://www.iucr.org
##########################################################################

data_image0

_cell_length_a                          7.219
_cell_length_b                          10.795
_cell_length_c                          11.662
_cell_angle_alpha                       113.686
_cell_angle_beta                        102.814
_cell_angle_gamma                       95.069
_symmetry_space_group_name_H-M          'P 1'
_symmetry_int_tables_number             1
loop_
  _symmetry_equiv_pos_as_xyz
         'x, y, z' 
loop_
  _atom_site_label
  _atom_site_occupancy
  _atom_site_fract_x
  _atom_site_fract_y
  _atom_site_fract_z
  _atom_site_thermal_displace_type
  _atom_site_B_iso_or_equiv
  _atom_site_type_symbol
  _atom_site_charge
         Ba1       1.0000    0.54785   0.22705   0.61578   Biso      1.000     Ba          1.5835299999999999  
         Ba2       1.0000    0.45215   0.77295   0.38422   Biso      1.000     Ba          1.583533  
         C1        1.0000    0.11210   0.95810   0.77240   Biso      1.000     C          0.5556949999999999  
         C2        1.0000    0.19680   0.03220   0.91830   Biso      1.000     C          0.131813  
         C3        1.0000    0.25830   0.97610   0.00490   Biso      1.000     C          -0.144203           
         C4        1.0000    0.40930   0.01120   0.23830   Biso      1.000     C          0.6073810000000001  
         C5        1.0000    0.34790   0.20730   0.17840   Biso      1.000     C          -0.129227           
         C6        1.0000    0.28670   0.25480   0.08560   Biso      1.000     C          0.133638  
         C7        1.0000    0.29370   0.40220   0.10590   Biso      1.000     C          0.602992  
         C8        1.0000    0.88790   0.04190   0.22760   Biso      1.000     C          0.555696  
         C9        1.0000    0.80320   0.96780   0.08170   Biso      1.000     C          0.13181199999999998           
         C10       1.0000    0.74170   0.02390   0.99510   Biso      1.000     C          -0.144203           
         C11       1.0000    0.59070   0.98880   0.76170   Biso      1.000     C          0.6073810000000001  
         C12       1.0000    0.66460   0.93460   0.86300   Biso      1.000     C          0.040035  
         C13       1.0000    0.33540   0.06540   0.13700   Biso      1.000     C          0.040035  
         C14       1.0000    0.71330   0.74520   0.91440   Biso      1.000     C          0.133634  
         C15       1.0000    0.70630   0.59780   0.89410   Biso      1.000     C          0.602992  
         C16       1.0000    0.65210   0.79270   0.82160   Biso      1.000     C          -0.129223           
         H1        1.0000    0.76000   0.12150   0.02400   Biso      1.000     H          0.15049200000000001           
         H2        1.0000    0.15000   0.97700   0.42460   Biso      1.000     H          0.42020799999999997           
         H3        1.0000    0.18700   0.95300   0.54500   Biso      1.000     H          0.43099799999999994           
         H4        1.0000    0.59600   0.73000   0.73150   Biso      1.000     H          0.13947   
         H5        1.0000    0.24000   0.87850   0.97600   Biso      1.000     H          0.15049200000000001           
         H6        1.0000    0.85000   0.02300   0.57540   Biso      1.000     H          0.42020799999999997           
         H7        1.0000    0.81300   0.04700   0.45500   Biso      1.000     H          0.43099799999999994           
         H8        1.0000    0.40400   0.27000   0.26850   Biso      1.000     H          0.139471  
         N1        1.0000    0.78820   0.83160   0.03980   Biso      1.000     N          -0.37909499999999996          
         N2        1.0000    0.21180   0.16840   0.96020   Biso      1.000     N          -0.379096           
         O1        1.0000    0.25960   0.28980   0.74400   Biso      1.000     O          -0.799637           
         O2        1.0000    0.24210   0.98970   0.49870   Biso      1.000     O          -0.866492           
         O3        1.0000    0.43980   0.89190   0.19780   Biso      1.000     O          -0.608205           
         O4        1.0000    0.43260   0.09100   0.35260   Biso      1.000     O          -0.663613           
         O5        1.0000    0.08500   0.83340   0.71280   Biso      1.000     O          -0.488782           
         O6        1.0000    0.07460   0.04230   0.71940   Biso      1.000     O          -0.632173           
         O7        1.0000    0.22840   0.41220   0.99690   Biso      1.000     O          -0.558845           
         O8        1.0000    0.35770   0.49870   0.21320   Biso      1.000     O          -0.54324  
         O9        1.0000    0.08680   0.72720   0.21870   Biso      1.000     O          -0.801509           
         O10       1.0000    0.77160   0.58780   0.00310   Biso      1.000     O          -0.558843           
         O11       1.0000    0.56020   0.10810   0.80220   Biso      1.000     O          -0.608205           
         O12       1.0000    0.56740   0.90900   0.64740   Biso      1.000     O          -0.663613           
         O13       1.0000    0.91500   0.16660   0.28720   Biso      1.000     O          -0.488782           
         O14       1.0000    0.92540   0.95770   0.28060   Biso      1.000     O          -0.6321720000000001           
         O15       1.0000    0.64230   0.50130   0.78680   Biso      1.000     O          -0.54324  
         O16       1.0000    0.91320   0.27280   0.78130   Biso      1.000     O          -0.801511           
         O17       1.0000    0.74040   0.71020   0.25600   Biso      1.000     O          -0.799642           
         O18       1.0000    0.75790   0.01030   0.50130   Biso      1.000     O          -0.866492           
         V1        1.0000    0.86984   0.74980   0.17464   Biso      1.000     V          1.818771  
         V2        1.0000    0.13016   0.25020   0.82536   Biso      1.000     V          1.8187689999999999 