
##########################################################################
#               Crystallographic Information Format file
#               Produced by PyCifRW module
#
#  This is a CIF file.  CIF has been adopted by the International
#  Union of Crystallography as the standard for data archiving and
#  transmission.
#
#  For information on this file format, follow the CIF links at
#  http://www.iucr.org
##########################################################################

data_image0

_cell_length_a                          15.214
_cell_length_b                          15.214
_cell_length_c                          19.686
_cell_angle_alpha                       90
_cell_angle_beta                        90
_cell_angle_gamma                       120
_symmetry_space_group_name_H-M          'P 1'
_symmetry_int_tables_number             1
loop_
  _symmetry_equiv_pos_as_xyz
         'x, y, z' 
loop_
  _atom_site_label
  _atom_site_occupancy
  _atom_site_fract_x
  _atom_site_fract_y
  _atom_site_fract_z
  _atom_site_thermal_displace_type
  _atom_site_B_iso_or_equiv
  _atom_site_type_symbol
  _atom_site_charge
         C1        1.0000    0.75490   0.59960   0.25850   Biso      1.000     C          -0.100805           
         C2        1.0000    0.28340   0.41390   0.99683   Biso      1.000     C          -0.034857           
         C3        1.0000    0.22800   0.45460   0.02553   Biso      1.000     C          -0.151506           
         C4        1.0000    0.15530   0.40040   0.07483   Biso      1.000     C          -0.100865           
         C5        1.0000    0.02270   0.72100   0.88800   Biso      1.000     C          0.38784   
         C6        1.0000    0.08760   0.80700   0.06750   Biso      1.000     C          0.088443  
         C7        1.0000    0.06180   0.74920   0.00940   Biso      1.000     C          -0.154468           
         C8        1.0000    0.04970   0.78020   0.94980   Biso      1.000     C          0.049544  
         C9        1.0000    0.07150   0.88210   0.94810   Biso      1.000     C          -0.148911           
         C10       1.0000    0.09040   0.93480   0.00800   Biso      1.000     C          0.089332  
         C11       1.0000    0.96160   0.41870   0.78020   Biso      1.000     C          -0.162592           
         C12       1.0000    0.96350   0.32920   0.78100   Biso      1.000     C          0.09726   
         C13       1.0000    0.82930   0.00600   0.76620   Biso      1.000     C          0.619279  
         C14       1.0000    0.51300   0.87300   0.62200   Biso      1.000     C          0.65201   
         C15       1.0000    0.73500   0.92840   0.73330   Biso      1.000     C          -0.061197           
         C16       1.0000    0.26610   0.31920   0.01733   Biso      1.000     C          0.06072   
         C17       1.0000    0.68080   0.94690   0.68400   Biso      1.000     C          0.060881  
         C18       1.0000    0.54540   0.77340   0.69220   Biso      1.000     C          -0.151488           
         C19       1.0000    0.59960   0.75490   0.74150   Biso      1.000     C          -0.100804           
         C20       1.0000    0.30170   0.27900   0.44533   Biso      1.000     C          0.387999  
         C21       1.0000    0.28060   0.19300   0.26583   Biso      1.000     C          0.0886    
         C22       1.0000    0.31260   0.25080   0.32393   Biso      1.000     C          -0.154541           
         C23       1.0000    0.26950   0.21980   0.38353   Biso      1.000     C          0.049537  
         C24       1.0000    0.18940   0.11790   0.38523   Biso      1.000     C          -0.148992           
         C25       1.0000    0.15560   0.06520   0.32533   Biso      1.000     C          0.089419  
         C26       1.0000    0.54290   0.58130   0.55313   Biso      1.000     C          -0.162394           
         C27       1.0000    0.63430   0.67080   0.55233   Biso      1.000     C          0.097179  
         C28       1.0000    0.82330   0.99400   0.56713   Biso      1.000     C          0.61921   
         C29       1.0000    0.64000   0.12700   0.71133   Biso      1.000     C          0.652063  
         C30       1.0000    0.86200   0.16760   0.57133   Biso      1.000     C          -0.118515           
         C31       1.0000    0.80660   0.07160   0.60003   Biso      1.000     C          -0.061024           
         C32       1.0000    0.58610   0.86950   0.66350   Biso      1.000     C          -0.03506  
         C33       1.0000    0.19340   0.26500   0.06663   Biso      1.000     C          -0.061042           
         C34       1.0000    0.13800   0.30560   0.09533   Biso      1.000     C          -0.118508           
         C35       1.0000    0.36000   0.48700   0.95533   Biso      1.000     C          0.651821  
         C36       1.0000    0.51660   0.51660   0.50000   Biso      1.000     C          0.057757  
         C37       1.0000    0.41950   0.41950   0.50000   Biso      1.000     C          0.379569  
         C38       1.0000    0.00000   0.48340   0.83333   Biso      1.000     C          0.057699  
         C39       1.0000    0.00000   0.58050   0.83333   Biso      1.000     C          0.379458  
         C40       1.0000    0.48340   0.00000   0.16667   Biso      1.000     C          0.057682  
         C41       1.0000    0.58050   0.00000   0.16667   Biso      1.000     C          0.37946   
         C42       1.0000    0.27900   0.30170   0.55467   Biso      1.000     C          0.387999  
         C43       1.0000    0.19300   0.28060   0.73417   Biso      1.000     C          0.088599  
         C44       1.0000    0.25080   0.31260   0.67607   Biso      1.000     C          -0.154541           
         C45       1.0000    0.21980   0.26950   0.61647   Biso      1.000     C          0.049537  
         C46       1.0000    0.11790   0.18940   0.61477   Biso      1.000     C          -0.148992           
         C47       1.0000    0.06520   0.15560   0.67467   Biso      1.000     C          0.089419  
         C48       1.0000    0.58130   0.54290   0.44687   Biso      1.000     C          -0.162377           
         C49       1.0000    0.67080   0.63430   0.44767   Biso      1.000     C          0.097177  
         C50       1.0000    0.99400   0.82330   0.43287   Biso      1.000     C          0.61921   
         C51       1.0000    0.12700   0.64000   0.28867   Biso      1.000     C          0.652063  
         C52       1.0000    0.16760   0.86200   0.42867   Biso      1.000     C          -0.118515           
         C53       1.0000    0.17670   0.17070   0.09953   Biso      1.000     C          0.619121  
         C54       1.0000    0.36570   0.03650   0.11433   Biso      1.000     C          0.097076  
         C55       1.0000    0.45710   0.03840   0.11353   Biso      1.000     C          -0.162524           
         C56       1.0000    0.84440   0.90960   0.34133   Biso      1.000     C          0.089285  
         C57       1.0000    0.81060   0.92850   0.28143   Biso      1.000     C          -0.149041           
         C58       1.0000    0.73050   0.95030   0.28313   Biso      1.000     C          0.049544  
         C59       1.0000    0.73390   0.05310   0.64933   Biso      1.000     C          0.060744  
         C60       1.0000    0.68740   0.93820   0.34273   Biso      1.000     C          -0.154312           
         C61       1.0000    0.69830   0.97730   0.22133   Biso      1.000     C          0.388186  
         C62       1.0000    0.24510   0.84470   0.40817   Biso      1.000     C          -0.100703           
         C63       1.0000    0.22660   0.77200   0.35887   Biso      1.000     C          -0.151593           
         C64       1.0000    0.13050   0.71660   0.33017   Biso      1.000     C          -0.035038           
         C65       1.0000    0.05310   0.73390   0.35067   Biso      1.000     C          0.060745  
         C66       1.0000    0.07160   0.80660   0.39997   Biso      1.000     C          -0.061024           
         C67       1.0000    0.71940   0.91240   0.40083   Biso      1.000     C          0.088335  
         C68       1.0000    0.71660   0.13050   0.66983   Biso      1.000     C          -0.035038           
         C69       1.0000    0.69440   0.83240   0.76200   Biso      1.000     C          -0.118436           
         C70       1.0000    0.77200   0.22660   0.64113   Biso      1.000     C          -0.151592           
         C71       1.0000    0.92850   0.81060   0.71857   Biso      1.000     C          -0.149048           
         C72       1.0000    0.90960   0.84440   0.65867   Biso      1.000     C          0.089292  
         C73       1.0000    0.03840   0.45710   0.88647   Biso      1.000     C          -0.162526           
         C74       1.0000    0.03650   0.36570   0.88567   Biso      1.000     C          0.097076  
         C75       1.0000    0.17070   0.17670   0.90047   Biso      1.000     C          0.619121  
         C76       1.0000    0.48700   0.36000   0.04467   Biso      1.000     C          0.651821  
         C77       1.0000    0.30560   0.13800   0.90467   Biso      1.000     C          -0.118508           
         C78       1.0000    0.26500   0.19340   0.93337   Biso      1.000     C          -0.061042           
         C79       1.0000    0.31920   0.26610   0.98267   Biso      1.000     C          0.060719  
         C80       1.0000    0.41390   0.28340   0.00317   Biso      1.000     C          -0.034856           
         C81       1.0000    0.45460   0.22800   0.97447   Biso      1.000     C          -0.151506           
         C82       1.0000    0.72100   0.02270   0.11200   Biso      1.000     C          0.387843  
         C83       1.0000    0.95030   0.73050   0.71687   Biso      1.000     C          0.049545  
         C84       1.0000    0.80700   0.08760   0.93250   Biso      1.000     C          0.088438  
         C85       1.0000    0.78020   0.04970   0.05020   Biso      1.000     C          0.04951   
         C86       1.0000    0.88210   0.07150   0.05190   Biso      1.000     C          -0.148908           
         C87       1.0000    0.93480   0.09040   0.99200   Biso      1.000     C          0.089332  
         C88       1.0000    0.41870   0.96160   0.21980   Biso      1.000     C          -0.162574           
         C89       1.0000    0.32920   0.96350   0.21900   Biso      1.000     C          0.097257  
         C90       1.0000    0.00600   0.82930   0.23380   Biso      1.000     C          0.619279  
         C91       1.0000    0.87300   0.51300   0.37800   Biso      1.000     C          0.65201   
         C92       1.0000    0.83240   0.69440   0.23800   Biso      1.000     C          -0.118436           
         C93       1.0000    0.92840   0.73500   0.26670   Biso      1.000     C          -0.061197           
         C94       1.0000    0.94690   0.68080   0.31600   Biso      1.000     C          0.060881  
         C95       1.0000    0.86950   0.58610   0.33650   Biso      1.000     C          -0.035062           
         C96       1.0000    0.77340   0.54540   0.30780   Biso      1.000     C          -0.151487           
         C97       1.0000    0.74920   0.06180   0.99060   Biso      1.000     C          -0.154431           
         C98       1.0000    0.93820   0.68740   0.65727   Biso      1.000     C          -0.154312           
         C99       1.0000    0.40040   0.15530   0.92517   Biso      1.000     C          -0.100865           
         C100      1.0000    0.84470   0.24510   0.59183   Biso      1.000     C          -0.100703           
         C101      1.0000    0.97730   0.69830   0.77867   Biso      1.000     C          0.388186  
         C102      1.0000    0.91240   0.71940   0.59917   Biso      1.000     C          0.088335  
         Cd1       1.0000    0.85635   0.85635   0.50000   Biso      1.000     Cd          0.75849   
         Cd2       1.0000    0.00000   0.14365   0.83333   Biso      1.000     Cd          0.758446  
         Cd3       1.0000    0.14365   0.00000   0.16667   Biso      1.000     Cd          0.758446  
         H1        1.0000    0.48200   0.72160   0.67850   Biso      1.000     H          0.117074  
         H2        1.0000    0.09790   0.00110   0.32613   Biso      1.000     H          0.09288   
         H3        1.0000    0.91300   0.07310   0.09300   Biso      1.000     H          0.13243   
         H4        1.0000    0.16010   0.08700   0.42633   Biso      1.000     H          0.132513  
         H5        1.0000    0.27840   0.76040   0.34517   Biso      1.000     H          0.117103  
         H6        1.0000    0.68400   0.05220   0.98740   Biso      1.000     H          0.117047  
         H7        1.0000    0.57240   0.69070   0.76080   Biso      1.000     H          0.101781  
         H8        1.0000    0.53101   0.12049   0.77066   Biso      1.000     H          0.386765  
         H9        1.0000    0.18000   0.91060   0.46167   Biso      1.000     H          0.119333  
         H10       1.0000    0.68460   0.90350   0.44143   Biso      1.000     H          0.108754  
         H11       1.0000    0.63180   0.94780   0.34593   Biso      1.000     H          0.116987  
         H12       1.0000    0.83990   0.92690   0.24033   Biso      1.000     H          0.132496  
         H13       1.0000    0.90210   0.90320   0.34053   Biso      1.000     H          0.092959  
         H14       1.0000    0.30930   0.88170   0.42747   Biso      1.000     H          0.101738  
         H15       1.0000    0.99890   0.09680   0.99280   Biso      1.000     H          0.092922  
         H16       1.0000    0.49950   0.56540   0.59013   Biso      1.000     H          0.120611  
         H17       1.0000    0.71460   0.65320   0.41067   Biso      1.000     H          0.098002  
         H18       1.0000    0.69070   0.57240   0.23920   Biso      1.000     H          0.101781  
         H19       1.0000    0.88170   0.30930   0.57253   Biso      1.000     H          0.101738  
         H20       1.0000    0.72160   0.48200   0.32150   Biso      1.000     H          0.117074  
         H21       1.0000    0.91060   0.18000   0.53833   Biso      1.000     H          0.119333  
         H22       1.0000    0.12049   0.53101   0.22934   Biso      1.000     H          0.386765  
         H23       1.0000    0.58948   0.46899   0.10399   Biso      1.000     H          0.386714  
         H24       1.0000    0.21890   0.31540   0.77477   Biso      1.000     H          0.108729  
         H25       1.0000    0.82000   0.73060   0.20500   Biso      1.000     H          0.119352  
         H26       1.0000    0.31600   0.36820   0.67927   Biso      1.000     H          0.117061  
         H27       1.0000    0.65320   0.71460   0.58933   Biso      1.000     H          0.098002  
         H28       1.0000    0.08700   0.16010   0.57367   Biso      1.000     H          0.132513  
         H29       1.0000    0.00110   0.09790   0.67387   Biso      1.000     H          0.09288   
         H30       1.0000    0.28540   0.93860   0.25600   Biso      1.000     H          0.09803   
         H31       1.0000    0.56540   0.49950   0.40987   Biso      1.000     H          0.12061   
         H32       1.0000    0.50050   0.06590   0.07653   Biso      1.000     H          0.120802  
         H33       1.0000    0.43460   0.93410   0.25680   Biso      1.000     H          0.120767  
         H34       1.0000    0.34680   0.06140   0.07733   Biso      1.000     H          0.098045  
         H35       1.0000    0.78110   0.09650   0.89190   Biso      1.000     H          0.108735  
         H36       1.0000    0.41052   0.87951   0.56267   Biso      1.000     H          0.386749  
         H37       1.0000    0.87951   0.41052   0.43733   Biso      1.000     H          0.386749  
         H38       1.0000    0.09650   0.78110   0.10810   Biso      1.000     H          0.108734  
         H39       1.0000    0.05220   0.68400   0.01260   Biso      1.000     H          0.11705   
         H40       1.0000    0.07310   0.91300   0.90700   Biso      1.000     H          0.13243   
         H41       1.0000    0.09680   0.99890   0.00720   Biso      1.000     H          0.092922  
         H42       1.0000    0.06140   0.34680   0.92267   Biso      1.000     H          0.098045  
         H43       1.0000    0.11830   0.42760   0.09413   Biso      1.000     H          0.101826  
         H44       1.0000    0.93410   0.43460   0.74320   Biso      1.000     H          0.120768  
         H45       1.0000    0.06590   0.50050   0.92347   Biso      1.000     H          0.120802  
         H46       1.0000    0.90320   0.90210   0.65947   Biso      1.000     H          0.092959  
         H47       1.0000    0.73060   0.82000   0.79500   Biso      1.000     H          0.119352  
         H48       1.0000    0.46899   0.58948   0.89601   Biso      1.000     H          0.386714  
         H49       1.0000    0.92690   0.83990   0.75967   Biso      1.000     H          0.132497  
         H50       1.0000    0.94780   0.63180   0.65407   Biso      1.000     H          0.116987  
         H51       1.0000    0.93860   0.28540   0.74400   Biso      1.000     H          0.09803   
         H52       1.0000    0.31540   0.21890   0.22523   Biso      1.000     H          0.108729  
         H53       1.0000    0.26940   0.08940   0.87167   Biso      1.000     H          0.119367  
         H54       1.0000    0.36820   0.31600   0.32073   Biso      1.000     H          0.117061  
         H55       1.0000    0.90350   0.68460   0.55857   Biso      1.000     H          0.108754  
         H56       1.0000    0.51800   0.23960   0.98817   Biso      1.000     H          0.11707   
         H57       1.0000    0.08940   0.26940   0.12833   Biso      1.000     H          0.119367  
         H58       1.0000    0.42760   0.11830   0.90587   Biso      1.000     H          0.101826  
         H59       1.0000    0.76040   0.27840   0.65483   Biso      1.000     H          0.117103  
         H60       1.0000    0.23960   0.51800   0.01183   Biso      1.000     H          0.11707   
         N1        1.0000    0.00000   0.30550   0.83333   Biso      1.000     N          -0.207992           
         N2        1.0000    0.75670   0.00000   0.16667   Biso      1.000     N          -0.374878           
         N3        1.0000    0.30550   0.00000   0.16667   Biso      1.000     N          -0.207992           
         N4        1.0000    0.39060   0.36440   0.44263   Biso      1.000     N          -0.403651           
         N5        1.0000    0.63560   0.02620   0.10930   Biso      1.000     N          -0.403538           
         N6        1.0000    0.36440   0.39060   0.55737   Biso      1.000     N          -0.40365  
         N7        1.0000    0.10110   0.20090   0.73247   Biso      1.000     N          -0.199804           
         N8        1.0000    0.89890   0.09980   0.93420   Biso      1.000     N          -0.199679           
         N9        1.0000    0.00000   0.75670   0.83333   Biso      1.000     N          -0.374877           
         N10       1.0000    0.69450   0.69450   0.50000   Biso      1.000     N          -0.207998           
         N11       1.0000    0.24330   0.24330   0.50000   Biso      1.000     N          -0.374827           
         N12       1.0000    0.60940   0.97380   0.22403   Biso      1.000     N          -0.40359  
         N13       1.0000    0.97380   0.60940   0.77597   Biso      1.000     N          -0.403589           
         N14       1.0000    0.79910   0.90020   0.39913   Biso      1.000     N          -0.199658           
         N15       1.0000    0.20090   0.10110   0.26753   Biso      1.000     N          -0.199804           
         N16       1.0000    0.90020   0.79910   0.60087   Biso      1.000     N          -0.199658           
         N17       1.0000    0.02620   0.63560   0.89070   Biso      1.000     N          -0.403537           
         N18       1.0000    0.09980   0.89890   0.06580   Biso      1.000     N          -0.19968  
         O1        1.0000    0.41800   0.85100   0.61300   Biso      1.000     O          -0.53491  
         O2        1.0000    0.09200   0.84650   0.23150   Biso      1.000     O          -0.584392           
         O3        1.0000    0.88690   0.98230   0.78700   Biso      1.000     O          -0.563284           
         O4        1.0000    0.75450   0.90800   0.56483   Biso      1.000     O          -0.584371           
         O5        1.0000    0.24550   0.15350   0.10183   Biso      1.000     O          -0.584308           
         O6        1.0000    0.90800   0.55200   0.43000   Biso      1.000     O          -0.527159           
         O7        1.0000    0.35600   0.44800   0.90333   Biso      1.000     O          -0.527094           
         O8        1.0000    0.85100   0.41800   0.38700   Biso      1.000     O          -0.53491  
         O9        1.0000    0.90460   0.01770   0.54633   Biso      1.000     O          -0.563281           
         O10       1.0000    0.55200   0.90800   0.57000   Biso      1.000     O          -0.527159           
         O11       1.0000    0.56700   0.14900   0.72033   Biso      1.000     O          -0.534887           
         O12       1.0000    0.98230   0.88690   0.21300   Biso      1.000     O          -0.563284           
         O13       1.0000    0.01770   0.90460   0.45367   Biso      1.000     O          -0.563281           
         O14       1.0000    0.14900   0.56700   0.27967   Biso      1.000     O          -0.534887           
         O15       1.0000    0.09200   0.64400   0.23667   Biso      1.000     O          -0.5272   
         O16       1.0000    0.90800   0.75450   0.43517   Biso      1.000     O          -0.584371           
         O17       1.0000    0.11310   0.09540   0.87967   Biso      1.000     O          -0.563251           
         O18       1.0000    0.15350   0.24550   0.89817   Biso      1.000     O          -0.584308           
         O19       1.0000    0.43300   0.58200   0.94633   Biso      1.000     O          -0.534842           
         O20       1.0000    0.58200   0.43300   0.05367   Biso      1.000     O          -0.534842           
         O21       1.0000    0.64400   0.09200   0.76333   Biso      1.000     O          -0.5272   
         O22       1.0000    0.44800   0.35600   0.09667   Biso      1.000     O          -0.527094           
         O23       1.0000    0.84650   0.09200   0.76850   Biso      1.000     O          -0.584392           
         O24       1.0000    0.09540   0.11310   0.12033   Biso      1.000     O          -0.563251 