
##########################################################################
#               Crystallographic Information Format file
#               Produced by PyCifRW module
#
#  This is a CIF file.  CIF has been adopted by the International
#  Union of Crystallography as the standard for data archiving and
#  transmission.
#
#  For information on this file format, follow the CIF links at
#  http://www.iucr.org
##########################################################################

data_image0

_cell_length_a                          18.4797
_cell_length_b                          18.4797
_cell_length_c                          18.632
_cell_angle_alpha                       86.3772
_cell_angle_beta                        86.3772
_cell_angle_gamma                       70.3635
_symmetry_space_group_name_H-M          'P 1'
_symmetry_int_tables_number             1
loop_
  _symmetry_equiv_pos_as_xyz
         'x, y, z' 
loop_
  _atom_site_label
  _atom_site_occupancy
  _atom_site_fract_x
  _atom_site_fract_y
  _atom_site_fract_z
  _atom_site_thermal_displace_type
  _atom_site_B_iso_or_equiv
  _atom_site_type_symbol
  _atom_site_charge
         C1        1.0000    0.44150   0.20610   0.47780   Biso      1.000     C          -0.028103           
         C2        1.0000    0.40400   0.88420   0.72520   Biso      1.000     C          -0.003675           
         C3        1.0000    0.43260   0.91660   0.77540   Biso      1.000     C          -0.096484           
         C4        1.0000    0.45390   0.87950   0.84400   Biso      1.000     C          -0.019487           
         C5        1.0000    0.48320   0.91420   0.89830   Biso      1.000     C          0.624104  
         C6        1.0000    0.35750   0.58950   0.86720   Biso      1.000     C          -0.022865           
         C7        1.0000    0.33890   0.53570   0.89010   Biso      1.000     C          -0.01558  
         C8        1.0000    0.35720   0.39820   0.92010   Biso      1.000     C          -0.135796           
         C9        1.0000    0.31100   0.47720   0.92080   Biso      1.000     C          0.132426  
         C10       1.0000    0.23860   0.49680   0.94900   Biso      1.000     C          -0.136228           
         C11       1.0000    0.37520   0.26020   0.94900   Biso      1.000     C          0.558594  
         C12       1.0000    0.32720   0.34300   0.95030   Biso      1.000     C          -0.005219           
         C13       1.0000    0.25250   0.36430   0.97670   Biso      1.000     C          -0.09856  
         C14       1.0000    0.38270   0.92490   0.65220   Biso      1.000     C          0.576413  
         C15       1.0000    0.20610   0.44150   0.97780   Biso      1.000     C          -0.029198           
         C16       1.0000    0.92690   0.11110   0.72730   Biso      1.000     C          -0.00981  
         C17       1.0000    0.96200   0.14360   0.69380   Biso      1.000     C          -0.05316  
         C18       1.0000    0.08400   0.13320   0.62720   Biso      1.000     C          -0.15568  
         C19       1.0000    0.01060   0.17760   0.64640   Biso      1.000     C          0.146836  
         C20       1.0000    0.98250   0.25610   0.62460   Biso      1.000     C          -0.136812           
         C21       1.0000    0.20670   0.11430   0.55740   Biso      1.000     C          0.594856  
         C22       1.0000    0.12870   0.16450   0.58040   Biso      1.000     C          -0.009368           
         C23       1.0000    0.10250   0.24190   0.56000   Biso      1.000     C          -0.086371           
         C24       1.0000    0.02780   0.28720   0.58180   Biso      1.000     C          -0.013778           
         C25       1.0000    0.99590   0.37030   0.55860   Biso      1.000     C          0.617529  
         C26       1.0000    0.34880   0.62360   0.65580   Biso      1.000     C          -0.018819           
         C27       1.0000    0.29150   0.60670   0.67570   Biso      1.000     C          -0.028702           
         C28       1.0000    0.12520   0.46280   0.00450   Biso      1.000     C          0.640565  
         C29       1.0000    0.18630   0.60650   0.76040   Biso      1.000     C          -0.138635           
         C30       1.0000    0.44100   0.80880   0.85650   Biso      1.000     C          -0.128902           
         C31       1.0000    0.39350   0.81370   0.73960   Biso      1.000     C          -0.138835           
         C32       1.0000    0.88420   0.40400   0.22520   Biso      1.000     C          -0.003464           
         C33       1.0000    0.91660   0.43260   0.27540   Biso      1.000     C          -0.094569           
         C34       1.0000    0.87950   0.45390   0.34400   Biso      1.000     C          -0.019615           
         C35       1.0000    0.91420   0.48320   0.39830   Biso      1.000     C          0.623913  
         C36       1.0000    0.58950   0.35750   0.36720   Biso      1.000     C          -0.024166           
         C37       1.0000    0.53570   0.33890   0.39010   Biso      1.000     C          -0.012635           
         C38       1.0000    0.39820   0.35720   0.42010   Biso      1.000     C          -0.13649  
         C39       1.0000    0.47720   0.31100   0.42080   Biso      1.000     C          0.131521  
         C40       1.0000    0.49680   0.23860   0.44900   Biso      1.000     C          -0.136481           
         C41       1.0000    0.26020   0.37520   0.44900   Biso      1.000     C          0.558352  
         C42       1.0000    0.34300   0.32720   0.45030   Biso      1.000     C          -0.005427           
         C43       1.0000    0.36430   0.25250   0.47670   Biso      1.000     C          -0.098082           
         C44       1.0000    0.40960   0.77740   0.80680   Biso      1.000     C          0.142119  
         C45       1.0000    0.77740   0.40960   0.30680   Biso      1.000     C          0.142994  
         C46       1.0000    0.88890   0.07310   0.77270   Biso      1.000     C          -0.009264           
         C47       1.0000    0.85640   0.03800   0.80620   Biso      1.000     C          -0.053757           
         C48       1.0000    0.86680   0.91600   0.87280   Biso      1.000     C          -0.155588           
         C49       1.0000    0.82240   0.98940   0.85360   Biso      1.000     C          0.147097  
         C50       1.0000    0.74390   0.01750   0.87540   Biso      1.000     C          -0.136235           
         C51       1.0000    0.88570   0.79330   0.94260   Biso      1.000     C          0.594454  
         C52       1.0000    0.83550   0.87130   0.91960   Biso      1.000     C          -0.009749           
         C53       1.0000    0.75810   0.89750   0.94000   Biso      1.000     C          -0.086306           
         C54       1.0000    0.71280   0.97220   0.91820   Biso      1.000     C          -0.013706           
         C55       1.0000    0.62970   0.00410   0.94140   Biso      1.000     C          0.617455  
         C56       1.0000    0.37640   0.65120   0.84420   Biso      1.000     C          -0.019644           
         C57       1.0000    0.39330   0.70850   0.82430   Biso      1.000     C          -0.028332           
         C58       1.0000    0.46280   0.12520   0.50450   Biso      1.000     C          0.641224  
         C59       1.0000    0.22260   0.59040   0.69320   Biso      1.000     C          0.142472  
         C60       1.0000    0.19120   0.55900   0.64350   Biso      1.000     C          -0.128685           
         C61       1.0000    0.07510   0.61730   0.84780   Biso      1.000     C          0.576408  
         C62       1.0000    0.62480   0.73980   0.05100   Biso      1.000     C          0.558443  
         C63       1.0000    0.76140   0.50320   0.05100   Biso      1.000     C          -0.135472           
         C64       1.0000    0.68900   0.52280   0.07920   Biso      1.000     C          0.13165   
         C65       1.0000    0.64280   0.60180   0.07990   Biso      1.000     C          -0.136661           
         C66       1.0000    0.66110   0.46430   0.10990   Biso      1.000     C          -0.013371           
         C67       1.0000    0.64250   0.41050   0.13280   Biso      1.000     C          -0.02357  
         C68       1.0000    0.51680   0.08580   0.10170   Biso      1.000     C          0.623863  
         C69       1.0000    0.54610   0.12050   0.15600   Biso      1.000     C          -0.019483           
         C70       1.0000    0.56740   0.08340   0.22460   Biso      1.000     C          -0.095653           
         C71       1.0000    0.59600   0.11580   0.27480   Biso      1.000     C          -0.003883           
         C72       1.0000    0.61730   0.07510   0.34780   Biso      1.000     C          0.576555  
         C73       1.0000    0.55900   0.19120   0.14350   Biso      1.000     C          -0.128528           
         C74       1.0000    0.67280   0.65700   0.04970   Biso      1.000     C          -0.005841           
         C75       1.0000    0.59040   0.22260   0.19320   Biso      1.000     C          0.142552  
         C76       1.0000    0.60670   0.29150   0.17570   Biso      1.000     C          -0.028668           
         C77       1.0000    0.62360   0.34880   0.15580   Biso      1.000     C          -0.01831  
         C78       1.0000    0.37030   0.99590   0.05860   Biso      1.000     C          0.617366  
         C79       1.0000    0.28720   0.02780   0.08180   Biso      1.000     C          -0.012736           
         C80       1.0000    0.24190   0.10250   0.06000   Biso      1.000     C          -0.088318           
         C81       1.0000    0.16450   0.12870   0.08040   Biso      1.000     C          -0.011105           
         C82       1.0000    0.11430   0.20670   0.05740   Biso      1.000     C          0.594535  
         C83       1.0000    0.25610   0.98250   0.12460   Biso      1.000     C          -0.139486           
         C84       1.0000    0.17760   0.01060   0.14640   Biso      1.000     C          0.146793  
         C85       1.0000    0.13320   0.08400   0.12720   Biso      1.000     C          -0.153083           
         C86       1.0000    0.14360   0.96200   0.19380   Biso      1.000     C          -0.054747           
         C87       1.0000    0.11110   0.92690   0.22730   Biso      1.000     C          -0.010141           
         C88       1.0000    0.60650   0.18630   0.26040   Biso      1.000     C          -0.138424           
         C89       1.0000    0.74750   0.63570   0.02330   Biso      1.000     C          -0.09896  
         C90       1.0000    0.79390   0.55850   0.02220   Biso      1.000     C          -0.028157           
         C91       1.0000    0.87480   0.53720   0.99550   Biso      1.000     C          0.641847  
         C92       1.0000    0.11580   0.59600   0.77480   Biso      1.000     C          -0.003693           
         C93       1.0000    0.08340   0.56740   0.72460   Biso      1.000     C          -0.095756           
         C94       1.0000    0.12050   0.54610   0.65600   Biso      1.000     C          -0.019474           
         C95       1.0000    0.08580   0.51680   0.60170   Biso      1.000     C          0.623966  
         C96       1.0000    0.41050   0.64250   0.63280   Biso      1.000     C          -0.023409           
         C97       1.0000    0.46430   0.66110   0.60990   Biso      1.000     C          -0.014809           
         C98       1.0000    0.60180   0.64280   0.57990   Biso      1.000     C          -0.135983           
         C99       1.0000    0.52280   0.68900   0.57920   Biso      1.000     C          0.132076  
         C100      1.0000    0.50320   0.76140   0.55100   Biso      1.000     C          -0.136048           
         C101      1.0000    0.73980   0.62480   0.55100   Biso      1.000     C          0.558595  
         C102      1.0000    0.65700   0.67280   0.54970   Biso      1.000     C          -0.005086           
         C103      1.0000    0.63570   0.74750   0.52330   Biso      1.000     C          -0.09901  
         C104      1.0000    0.55850   0.79390   0.52220   Biso      1.000     C          -0.029509           
         C105      1.0000    0.53720   0.87480   0.49550   Biso      1.000     C          0.640482  
         C106      1.0000    0.81370   0.39350   0.23960   Biso      1.000     C          -0.138046           
         C107      1.0000    0.70850   0.39330   0.32430   Biso      1.000     C          -0.028652           
         C108      1.0000    0.65120   0.37640   0.34420   Biso      1.000     C          -0.017214           
         C109      1.0000    0.00410   0.62970   0.44140   Biso      1.000     C          0.61739   
         C110      1.0000    0.97220   0.71280   0.41820   Biso      1.000     C          -0.012922           
         C111      1.0000    0.89750   0.75810   0.44000   Biso      1.000     C          -0.088179           
         C112      1.0000    0.87130   0.83550   0.41960   Biso      1.000     C          -0.010949           
         C113      1.0000    0.79330   0.88570   0.44260   Biso      1.000     C          0.594792  
         C114      1.0000    0.01750   0.74390   0.37540   Biso      1.000     C          -0.139042           
         C115      1.0000    0.98940   0.82240   0.35360   Biso      1.000     C          0.146867  
         C116      1.0000    0.91600   0.86680   0.37280   Biso      1.000     C          -0.153495           
         C117      1.0000    0.03800   0.85640   0.30620   Biso      1.000     C          -0.054905           
         C118      1.0000    0.07310   0.88890   0.27270   Biso      1.000     C          -0.009958           
         C119      1.0000    0.92490   0.38270   0.15220   Biso      1.000     C          0.576722  
         C120      1.0000    0.80880   0.44100   0.35650   Biso      1.000     C          -0.127941           
         Eu1       1.0000    0.89878   0.54547   0.56756   Biso      1.000     Eu          1.376727  
         Eu2       1.0000    0.35245   0.00879   0.52016   Biso      1.000     Eu          1.3725    
         Eu3       1.0000    0.45453   0.10122   0.93244   Biso      1.000     Eu          1.377     
         Eu4       1.0000    0.99121   0.64755   0.97984   Biso      1.000     Eu          1.371096  
         Eu5       1.0000    0.10122   0.45453   0.43244   Biso      1.000     Eu          1.376327  
         Eu6       1.0000    0.64755   0.99121   0.47984   Biso      1.000     Eu          1.370797  
         Eu7       1.0000    0.54547   0.89878   0.06756   Biso      1.000     Eu          1.375924  
         Eu8       1.0000    0.00879   0.35245   0.02016   Biso      1.000     Eu          1.372075  
         H1        1.0000    0.08260   0.10380   0.14520   Biso      1.000     H          0.142382  
         H2        1.0000    0.40690   0.38370   0.89960   Biso      1.000     H          0.135071  
         H3        1.0000    0.20880   0.54860   0.94950   Biso      1.000     H          0.128439  
         H4        1.0000    0.23210   0.32650   0.99410   Biso      1.000     H          0.132148  
         H5        1.0000    0.10380   0.08260   0.64520   Biso      1.000     H          0.142637  
         H6        1.0000    0.93330   0.28650   0.63950   Biso      1.000     H          0.138707  
         H7        1.0000    0.61630   0.59310   0.60040   Biso      1.000     H          0.135065  
         H8        1.0000    0.20880   0.62420   0.79560   Biso      1.000     H          0.124045  
         H9        1.0000    0.21780   0.54580   0.59960   Biso      1.000     H          0.1337    
         H10       1.0000    0.43840   0.96420   0.76450   Biso      1.000     H          0.128312  
         H11       1.0000    0.45140   0.79120   0.55050   Biso      1.000     H          0.128413  
         H12       1.0000    0.67350   0.76790   0.50590   Biso      1.000     H          0.132134  
         H13       1.0000    0.13400   0.26380   0.53220   Biso      1.000     H          0.135793  
         H14       1.0000    0.45420   0.78220   0.90040   Biso      1.000     H          0.133695  
         H15       1.0000    0.03580   0.56160   0.73550   Biso      1.000     H          0.128396  
         H16       1.0000    0.73620   0.86600   0.96780   Biso      1.000     H          0.135716  
         H17       1.0000    0.37580   0.79120   0.70440   Biso      1.000     H          0.123964  
         H18       1.0000    0.28650   0.93330   0.13950   Biso      1.000     H          0.138812  
         H19       1.0000    0.26380   0.13400   0.03220   Biso      1.000     H          0.135475  
         H20       1.0000    0.62420   0.20880   0.29560   Biso      1.000     H          0.123832  
         H21       1.0000    0.54580   0.21780   0.09960   Biso      1.000     H          0.133748  
         H22       1.0000    0.56160   0.03580   0.23550   Biso      1.000     H          0.128229  
         H23       1.0000    0.79120   0.45140   0.05050   Biso      1.000     H          0.128598  
         H24       1.0000    0.76790   0.67350   0.00590   Biso      1.000     H          0.132403  
         H25       1.0000    0.89620   0.91740   0.35480   Biso      1.000     H          0.142355  
         H26       1.0000    0.06670   0.71350   0.36050   Biso      1.000     H          0.138796  
         H27       1.0000    0.59310   0.61630   0.10040   Biso      1.000     H          0.134882  
         H28       1.0000    0.86600   0.73620   0.46780   Biso      1.000     H          0.135442  
         H29       1.0000    0.91740   0.89620   0.85480   Biso      1.000     H          0.142728  
         H30       1.0000    0.32650   0.23210   0.49410   Biso      1.000     H          0.132668  
         H31       1.0000    0.54860   0.20880   0.44950   Biso      1.000     H          0.128327  
         H32       1.0000    0.38370   0.40690   0.39960   Biso      1.000     H          0.134949  
         H33       1.0000    0.71350   0.06670   0.86050   Biso      1.000     H          0.138779  
         H34       1.0000    0.78220   0.45420   0.40040   Biso      1.000     H          0.133766  
         H35       1.0000    0.79120   0.37580   0.20440   Biso      1.000     H          0.124104  
         H36       1.0000    0.96420   0.43840   0.26450   Biso      1.000     H          0.128178  
         O1        1.0000    0.96670   0.60350   0.48790   Biso      1.000     O          -0.585873           
         O2        1.0000    0.41200   0.09920   0.52570   Biso      1.000     O          -0.553948           
         O3        1.0000    0.21170   0.34650   0.47700   Biso      1.000     O          -0.523412           
         O4        1.0000    0.24080   0.44200   0.42200   Biso      1.000     O          -0.533259           
         O5        1.0000    0.87760   0.50240   0.45460   Biso      1.000     O          -0.547281           
         O6        1.0000    0.98140   0.48620   0.38180   Biso      1.000     O          -0.578907           
         O7        1.0000    0.90170   0.34990   0.11100   Biso      1.000     O          -0.526739           
         O8        1.0000    0.98400   0.40260   0.13770   Biso      1.000     O          -0.548795           
         O9        1.0000    0.06680   0.59080   0.41380   Biso      1.000     O          -0.553096           
         O10       1.0000    0.75600   0.86840   0.49150   Biso      1.000     O          -0.524141           
         O11       1.0000    0.39650   0.03330   0.01210   Biso      1.000     O          -0.586813           
         O12       1.0000    0.91180   0.46540   0.99150   Biso      1.000     O          -0.630907           
         O13       1.0000    0.90080   0.58800   0.97430   Biso      1.000     O          -0.552205           
         O14       1.0000    0.65350   0.78830   0.02300   Biso      1.000     O          -0.521222           
         O15       1.0000    0.55800   0.75920   0.07800   Biso      1.000     O          -0.536177           
         O16       1.0000    0.49760   0.12240   0.04540   Biso      1.000     O          -0.545547           
         O17       1.0000    0.51380   0.01860   0.11820   Biso      1.000     O          -0.579741           
         O18       1.0000    0.65010   0.09830   0.38900   Biso      1.000     O          -0.52167  
         O19       1.0000    0.59740   0.01600   0.36230   Biso      1.000     O          -0.550962           
         O20       1.0000    0.40920   0.93320   0.08620   Biso      1.000     O          -0.550912           
         O21       1.0000    0.53460   0.08820   0.50850   Biso      1.000     O          -0.622758           
         O22       1.0000    0.76280   0.94500   0.40660   Biso      1.000     O          -0.541726           
         O23       1.0000    0.94500   0.76280   0.90660   Biso      1.000     O          -0.54353  
         O24       1.0000    0.78830   0.65350   0.52300   Biso      1.000     O          -0.522111           
         O25       1.0000    0.60350   0.96670   0.98790   Biso      1.000     O          -0.585861           
         O26       1.0000    0.46540   0.91180   0.49150   Biso      1.000     O          -0.619927           
         O27       1.0000    0.58800   0.90080   0.47430   Biso      1.000     O          -0.547476           
         O28       1.0000    0.13160   0.24400   0.00850   Biso      1.000     O          -0.522876           
         O29       1.0000    0.75920   0.55800   0.57800   Biso      1.000     O          -0.536328           
         O30       1.0000    0.12240   0.49760   0.54540   Biso      1.000     O          -0.546043           
         O31       1.0000    0.01860   0.51380   0.61820   Biso      1.000     O          -0.578382           
         O32       1.0000    0.09830   0.65010   0.88900   Biso      1.000     O          -0.521746           
         O33       1.0000    0.01600   0.59740   0.86230   Biso      1.000     O          -0.550874           
         O34       1.0000    0.93320   0.40920   0.58620   Biso      1.000     O          -0.555495           
         O35       1.0000    0.03330   0.39650   0.51210   Biso      1.000     O          -0.585829           
         O36       1.0000    0.24400   0.13160   0.50850   Biso      1.000     O          -0.528632           
         O37       1.0000    0.23720   0.05500   0.59340   Biso      1.000     O          -0.543632           
         O38       1.0000    0.08820   0.53460   0.00850   Biso      1.000     O          -0.620092           
         O39       1.0000    0.09920   0.41200   0.02570   Biso      1.000     O          -0.548221           
         O40       1.0000    0.34650   0.21170   0.97700   Biso      1.000     O          -0.522443           
         O41       1.0000    0.44200   0.24080   0.92200   Biso      1.000     O          -0.536589           
         O42       1.0000    0.50240   0.87760   0.95460   Biso      1.000     O          -0.545641           
         O43       1.0000    0.48620   0.98140   0.88180   Biso      1.000     O          -0.579712           
         O44       1.0000    0.34990   0.90170   0.61100   Biso      1.000     O          -0.521824           
         O45       1.0000    0.40260   0.98400   0.63770   Biso      1.000     O          -0.550455           
         O46       1.0000    0.59080   0.06680   0.91380   Biso      1.000     O          -0.555417           
         O47       1.0000    0.86840   0.75600   0.99150   Biso      1.000     O          -0.523239           
         O48       1.0000    0.05500   0.23720   0.09340   Biso      1.000     O          -0.54155 