
##########################################################################
#               Crystallographic Information Format file
#               Produced by PyCifRW module
#
#  This is a CIF file.  CIF has been adopted by the International
#  Union of Crystallography as the standard for data archiving and
#  transmission.
#
#  For information on this file format, follow the CIF links at
#  http://www.iucr.org
##########################################################################

data_image0

_cell_length_a                          8.4413
_cell_length_b                          8.4413
_cell_length_c                          16.688
_cell_angle_alpha                       90
_cell_angle_beta                        90
_cell_angle_gamma                       90.7823
_symmetry_space_group_name_H-M          'P 1'
_symmetry_int_tables_number             1
loop_
  _symmetry_equiv_pos_as_xyz
         'x, y, z' 
loop_
  _atom_site_label
  _atom_site_occupancy
  _atom_site_fract_x
  _atom_site_fract_y
  _atom_site_fract_z
  _atom_site_thermal_displace_type
  _atom_site_B_iso_or_equiv
  _atom_site_type_symbol
  _atom_site_charge
         C1        1.0000    0.65260   0.34740   0.48250   Biso      1.000     C          0.154697  
         C2        1.0000    0.17440   0.82560   0.00440   Biso      1.000     C          0.139506  
         C3        1.0000    0.34740   0.65260   0.98250   Biso      1.000     C          0.154697  
         C4        1.0000    0.82560   0.17440   0.50440   Biso      1.000     C          0.139506  
         C5        1.0000    0.95400   0.54540   0.21810   Biso      1.000     C          0.140454  
         C6        1.0000    0.12690   0.37850   0.25000   Biso      1.000     C          0.14861300000000002           
         C7        1.0000    0.04600   0.45460   0.71810   Biso      1.000     C          0.140454  
         C8        1.0000    0.87310   0.62150   0.75000   Biso      1.000     C          0.148612  
         C9        1.0000    0.54540   0.95400   0.71810   Biso      1.000     C          0.140454  
         C10       1.0000    0.37850   0.12690   0.75000   Biso      1.000     C          0.148608  
         C11       1.0000    0.45460   0.04600   0.21810   Biso      1.000     C          0.140454  
         C12       1.0000    0.62150   0.87310   0.25000   Biso      1.000     C          0.148608  
         Cd1       1.0000    0.93855   0.06145   0.32061   Biso      1.000     Cd          0.790921  
         Cd2       1.0000    0.30719   0.69281   0.17980   Biso      1.000     Cd          0.7817    
         Cd3       1.0000    0.62063   0.37937   0.28458   Biso      1.000     Cd          0.703287  
         Cd4       1.0000    0.06145   0.93855   0.82061   Biso      1.000     Cd          0.790921  
         Cd5       1.0000    0.69281   0.30719   0.67980   Biso      1.000     Cd          0.7817    
         Cd6       1.0000    0.37937   0.62063   0.78458   Biso      1.000     Cd          0.703287  
         Cl1       1.0000    0.48000   0.52000   0.64280   Biso      1.000     Cl          -0.5348609999999999           
         Cl2       1.0000    0.92390   0.07610   0.70060   Biso      1.000     Cl          -0.4918   
         Cl3       1.0000    0.52000   0.48000   0.14280   Biso      1.000     Cl          -0.5348609999999999           
         Cl4       1.0000    0.43120   0.56880   0.34370   Biso      1.000     Cl          -0.553491           
         Cl5       1.0000    0.07610   0.92390   0.20060   Biso      1.000     Cl          -0.4918   
         Cl6       1.0000    0.56880   0.43120   0.84370   Biso      1.000     Cl          -0.553491           
         H1        1.0000    0.22400   0.33020   0.25810   Biso      1.000     H          0.09098099999999999           
         H2        1.0000    0.90620   0.63720   0.19990   Biso      1.000     H          0.0966    
         H3        1.0000    0.36280   0.09380   0.19990   Biso      1.000     H          0.0966    
         H4        1.0000    0.33020   0.22400   0.75810   Biso      1.000     H          0.09098200000000001           
         H5        1.0000    0.63720   0.90620   0.69990   Biso      1.000     H          0.0966    
         H6        1.0000    0.77600   0.66980   0.75810   Biso      1.000     H          0.09098099999999999           
         H7        1.0000    0.57580   0.42420   0.48910   Biso      1.000     H          0.10715999999999999           
         H8        1.0000    0.89490   0.10510   0.52910   Biso      1.000     H          0.099     
         H9        1.0000    0.42420   0.57580   0.98910   Biso      1.000     H          0.10715999999999999           
         H10       1.0000    0.09380   0.36280   0.69990   Biso      1.000     H          0.0966    
         H11       1.0000    0.10510   0.89490   0.02910   Biso      1.000     H          0.099     
         H12       1.0000    0.66980   0.77600   0.25810   Biso      1.000     H          0.09098200000000001           
         N1        1.0000    0.27200   0.72800   0.04550   Biso      1.000     N          -0.325536           
         N2        1.0000    0.18720   0.81280   0.92840   Biso      1.000     N          -0.210775           
         N3        1.0000    0.29820   0.70180   0.91330   Biso      1.000     N          -0.18647  
         N4        1.0000    0.72800   0.27200   0.54550   Biso      1.000     N          -0.32553499999999996          
         N5        1.0000    0.81280   0.18720   0.42840   Biso      1.000     N          -0.210775           
         N6        1.0000    0.70180   0.29820   0.41330   Biso      1.000     N          -0.18647  
         N7        1.0000    0.98860   0.31180   0.26920   Biso      1.000     N          -0.227787           
         N8        1.0000    0.87400   0.42140   0.24730   Biso      1.000     N          -0.183782           
         N9        1.0000    0.88840   0.47640   0.71770   Biso      1.000     N          -0.301748           
         N10       1.0000    0.12600   0.57860   0.74730   Biso      1.000     N          -0.183785           
         N11       1.0000    0.01140   0.68820   0.76920   Biso      1.000     N          -0.227785           
         N12       1.0000    0.52360   0.11160   0.71770   Biso      1.000     N          -0.301745           
         N13       1.0000    0.42140   0.87400   0.74730   Biso      1.000     N          -0.183785           
         N14       1.0000    0.47640   0.88840   0.21770   Biso      1.000     N          -0.301745           
         N15       1.0000    0.57860   0.12600   0.24730   Biso      1.000     N          -0.183785           
         N16       1.0000    0.68820   0.01140   0.26920   Biso      1.000     N          -0.22778400000000001          
         N17       1.0000    0.11160   0.52360   0.21770   Biso      1.000     N          -0.301748           
         N18       1.0000    0.31180   0.98860   0.76920   Biso      1.000     N          -0.22778400000000001 