
##########################################################################
#               Crystallographic Information Format file
#               Produced by PyCifRW module
#
#  This is a CIF file.  CIF has been adopted by the International
#  Union of Crystallography as the standard for data archiving and
#  transmission.
#
#  For information on this file format, follow the CIF links at
#  http://www.iucr.org
##########################################################################

data_image0

_cell_length_a                          7.663
_cell_length_b                          10.104
_cell_length_c                          17.426
_cell_angle_alpha                       90
_cell_angle_beta                        90
_cell_angle_gamma                       90
_symmetry_space_group_name_H-M          'P 1'
_symmetry_int_tables_number             1
loop_
  _symmetry_equiv_pos_as_xyz
         'x, y, z' 
loop_
  _atom_site_label
  _atom_site_occupancy
  _atom_site_fract_x
  _atom_site_fract_y
  _atom_site_fract_z
  _atom_site_thermal_displace_type
  _atom_site_B_iso_or_equiv
  _atom_site_type_symbol
  _atom_site_charge
         C1        1.0000    0.08940   0.98830   0.82387   Biso      1.000     C          0.109927  
         C2        1.0000    0.85760   0.51110   0.65323   Biso      1.000     C          0.11989000000000001           
         C3        1.0000    0.64240   0.48890   0.15323   Biso      1.000     C          0.11989000000000001           
         C4        1.0000    0.91060   0.48830   0.17613   Biso      1.000     C          0.109927  
         C5        1.0000    0.59310   0.75000   0.41680   Biso      1.000     C          0.11673499999999999           
         C6        1.0000    0.35760   0.98890   0.84677   Biso      1.000     C          0.11988900000000001           
         C7        1.0000    0.85760   0.98890   0.65323   Biso      1.000     C          0.11988900000000001           
         C8        1.0000    0.41060   0.01170   0.32387   Biso      1.000     C          0.109927  
         C9        1.0000    0.58940   0.98830   0.67613   Biso      1.000     C          0.109928  
         C10       1.0000    0.14240   0.01110   0.34677   Biso      1.000     C          0.11988900000000001           
         C11       1.0000    0.36330   0.75000   0.06680   Biso      1.000     C          0.11731199999999999           
         C12       1.0000    0.64240   0.01110   0.15323   Biso      1.000     C          0.11988900000000001           
         C13       1.0000    0.91060   0.01170   0.17613   Biso      1.000     C          0.109927  
         C14       1.0000    0.09310   0.75000   0.08320   Biso      1.000     C          0.11673499999999999           
         C15       1.0000    0.58940   0.51170   0.67613   Biso      1.000     C          0.109927  
         C16       1.0000    0.14240   0.48890   0.34677   Biso      1.000     C          0.11988900000000001           
         C17       1.0000    0.86330   0.75000   0.43320   Biso      1.000     C          0.11731199999999999           
         C18       1.0000    0.40690   0.25000   0.58320   Biso      1.000     C          0.116737  
         C19       1.0000    0.41060   0.48830   0.32387   Biso      1.000     C          0.109927  
         C20       1.0000    0.08940   0.51170   0.82387   Biso      1.000     C          0.109927  
         C21       1.0000    0.63670   0.25000   0.93320   Biso      1.000     C          0.11731199999999999           
         C22       1.0000    0.13670   0.25000   0.56680   Biso      1.000     C          0.11731   
         C23       1.0000    0.90690   0.25000   0.91680   Biso      1.000     C          0.11673599999999999           
         C24       1.0000    0.35760   0.51110   0.84677   Biso      1.000     C          0.11989000000000001           
         H1        1.0000    0.97340   0.75000   0.07420   Biso      1.000     H          0.065057  
         H2        1.0000    0.97290   0.75000   0.45610   Biso      1.000     H          0.087521  
         H3        1.0000    0.96790   0.53550   0.63600   Biso      1.000     H          0.091869  
         H4        1.0000    0.02660   0.25000   0.92580   Biso      1.000     H          0.065057  
         H5        1.0000    0.97250   0.96360   0.82190   Biso      1.000     H          0.05496   
         H6        1.0000    0.52710   0.25000   0.95610   Biso      1.000     H          0.087521  
         H7        1.0000    0.52750   0.03640   0.32190   Biso      1.000     H          0.05496   
         H8        1.0000    0.52660   0.25000   0.57420   Biso      1.000     H          0.065057  
         H9        1.0000    0.03210   0.03550   0.36400   Biso      1.000     H          0.091869  
         H10       1.0000    0.47250   0.53640   0.67810   Biso      1.000     H          0.05496   
         H11       1.0000    0.02710   0.25000   0.54390   Biso      1.000     H          0.087521  
         H12       1.0000    0.46790   0.96450   0.86400   Biso      1.000     H          0.091869  
         H13       1.0000    0.47290   0.75000   0.04390   Biso      1.000     H          0.087521  
         H14       1.0000    0.47340   0.75000   0.42580   Biso      1.000     H          0.065057  
         H15       1.0000    0.53210   0.03550   0.13600   Biso      1.000     H          0.091869  
         H16       1.0000    0.53210   0.46450   0.13600   Biso      1.000     H          0.091869  
         H17       1.0000    0.02750   0.46360   0.17810   Biso      1.000     H          0.05496   
         H18       1.0000    0.03210   0.46450   0.36400   Biso      1.000     H          0.091869  
         H19       1.0000    0.97250   0.53640   0.82190   Biso      1.000     H          0.05496   
         H20       1.0000    0.46790   0.53550   0.86400   Biso      1.000     H          0.091869  
         H21       1.0000    0.96790   0.96450   0.63600   Biso      1.000     H          0.091869  
         H22       1.0000    0.52750   0.46360   0.32190   Biso      1.000     H          0.05496   
         H23       1.0000    0.02750   0.03640   0.17810   Biso      1.000     H          0.05496   
         H24       1.0000    0.47250   0.96360   0.67810   Biso      1.000     H          0.05496   
         N1        1.0000    0.82580   0.40170   0.69236   Biso      1.000     N          -0.173718           
         N2        1.0000    0.33790   0.25000   0.65229   Biso      1.000     N          -0.177893           
         N3        1.0000    0.28700   0.25000   0.52704   Biso      1.000     N          -0.243525           
         N4        1.0000    0.85000   0.90290   0.20757   Biso      1.000     N          -0.17745999999999998          
         N5        1.0000    0.28770   0.41640   0.35905   Biso      1.000     N          -0.242675           
         N6        1.0000    0.66100   0.25000   0.85839   Biso      1.000     N          -0.17621199999999998          
         N7        1.0000    0.17420   0.59830   0.30764   Biso      1.000     N          -0.173717           
         N8        1.0000    0.78700   0.25000   0.97296   Biso      1.000     N          -0.24352600000000002          
         N9        1.0000    0.35000   0.59710   0.29243   Biso      1.000     N          -0.177456           
         N10       1.0000    0.83900   0.75000   0.35839   Biso      1.000     N          -0.17621199999999998          
         N11       1.0000    0.66210   0.75000   0.34771   Biso      1.000     N          -0.177876           
         N12       1.0000    0.71300   0.75000   0.47296   Biso      1.000     N          -0.24352600000000002          
         N13       1.0000    0.21230   0.58360   0.85905   Biso      1.000     N          -0.24267600000000003          
         N14       1.0000    0.32580   0.40170   0.80764   Biso      1.000     N          -0.173717           
         N15       1.0000    0.83790   0.25000   0.84771   Biso      1.000     N          -0.177877           
         N16       1.0000    0.16100   0.25000   0.64161   Biso      1.000     N          -0.176196           
         N17       1.0000    0.67420   0.90170   0.19236   Biso      1.000     N          -0.173714           
         N18       1.0000    0.28770   0.08360   0.35905   Biso      1.000     N          -0.242675           
         N19       1.0000    0.65000   0.40290   0.70757   Biso      1.000     N          -0.177456           
         N20       1.0000    0.15000   0.09710   0.79243   Biso      1.000     N          -0.17745999999999998          
         N21       1.0000    0.32580   0.09830   0.80764   Biso      1.000     N          -0.173714           
         N22       1.0000    0.21230   0.91640   0.85905   Biso      1.000     N          -0.242675           
         N23       1.0000    0.78770   0.41640   0.14095   Biso      1.000     N          -0.24267600000000003          
         N24       1.0000    0.67420   0.59830   0.19236   Biso      1.000     N          -0.173717           
         N25       1.0000    0.85000   0.59710   0.20757   Biso      1.000     N          -0.177456           
         N26       1.0000    0.35000   0.90290   0.29243   Biso      1.000     N          -0.177459           
         N27       1.0000    0.17420   0.90170   0.30764   Biso      1.000     N          -0.173714           
         N28       1.0000    0.71230   0.58360   0.64095   Biso      1.000     N          -0.24267600000000003          
         N29       1.0000    0.71230   0.91640   0.64095   Biso      1.000     N          -0.24267600000000003          
         N30       1.0000    0.15000   0.40290   0.79243   Biso      1.000     N          -0.177456           
         N31       1.0000    0.65000   0.09710   0.70757   Biso      1.000     N          -0.177459           
         N32       1.0000    0.33900   0.75000   0.14161   Biso      1.000     N          -0.17621199999999998          
         N33       1.0000    0.16210   0.75000   0.15229   Biso      1.000     N          -0.177877           
         N34       1.0000    0.21300   0.75000   0.02704   Biso      1.000     N          -0.24352600000000002          
         N35       1.0000    0.78770   0.08360   0.14095   Biso      1.000     N          -0.24267600000000003          
         N36       1.0000    0.82580   0.09830   0.69236   Biso      1.000     N          -0.173714           
         Zn1       1.0000    0.99250   0.25000   0.73881   Biso      1.000     Zn          0.529997  
         Zn2       1.0000    0.84308   0.25000   0.08445   Biso      1.000     Zn          0.115397  
         Zn3       1.0000    0.15692   0.75000   0.91555   Biso      1.000     Zn          0.115398  
         Zn4       1.0000    0.00750   0.75000   0.26119   Biso      1.000     Zn          0.529998  
         Zn5       1.0000    0.65692   0.75000   0.58445   Biso      1.000     Zn          0.115397  
         Zn6       1.0000    0.50750   0.75000   0.23881   Biso      1.000     Zn          0.529998  
         Zn7       1.0000    0.49250   0.25000   0.76119   Biso      1.000     Zn          0.529999  
         Zn8       1.0000    0.34308   0.25000   0.41555   Biso      1.000     Zn          0.115397 