
##########################################################################
#               Crystallographic Information Format file
#               Produced by PyCifRW module
#
#  This is a CIF file.  CIF has been adopted by the International
#  Union of Crystallography as the standard for data archiving and
#  transmission.
#
#  For information on this file format, follow the CIF links at
#  http://www.iucr.org
##########################################################################

data_image0

_cell_length_a                          16.7513
_cell_length_b                          18.1923
_cell_length_c                          12.0258
_cell_angle_alpha                       90
_cell_angle_beta                        123.87
_cell_angle_gamma                       90
_symmetry_space_group_name_H-M          'P 1'
_symmetry_int_tables_number             1
loop_
  _symmetry_equiv_pos_as_xyz
         'x, y, z' 
loop_
  _atom_site_label
  _atom_site_occupancy
  _atom_site_fract_x
  _atom_site_fract_y
  _atom_site_fract_z
  _atom_site_thermal_displace_type
  _atom_site_B_iso_or_equiv
  _atom_site_type_symbol
  _atom_site_charge
         C1        1.0000    0.50550   0.60312   0.98930   Biso      1.000     C          -0.151682           
         C2        1.0000    0.73650   0.04941   0.74200   Biso      1.000     C          -0.115686           
         C3        1.0000    0.52330   0.33422   0.98010   Biso      1.000     C          0.021122  
         C4        1.0000    0.73450   0.98217   0.68730   Biso      1.000     C          -0.135032           
         C5        1.0000    0.59530   0.01879   0.48010   Biso      1.000     C          -0.083305           
         C6        1.0000    0.59640   0.08574   0.53560   Biso      1.000     C          -0.118032           
         C7        1.0000    0.56610   0.46792   0.92370   Biso      1.000     C          -0.161907           
         C8        1.0000    0.43390   0.46792   0.57630   Biso      1.000     C          -0.161907           
         C9        1.0000    0.40590   0.40390   0.60560   Biso      1.000     C          -0.016784           
         C10       1.0000    0.34310   0.89160   0.00380   Biso      1.000     C          0.624256  
         C11       1.0000    0.48480   0.46588   0.51660   Biso      1.000     C          0.087376  
         C12       1.0000    0.33640   0.96572   0.94430   Biso      1.000     C          -0.031433           
         C13       1.0000    0.33810   0.17026   0.76700   Biso      1.000     C          0.633461  
         C14       1.0000    0.33330   0.10136   0.83260   Biso      1.000     C          -0.016642           
         C15       1.0000    0.90360   0.41426   0.46440   Biso      1.000     C          -0.118034           
         C16       1.0000    0.90470   0.48121   0.51990   Biso      1.000     C          -0.083303           
         C17       1.0000    0.76550   0.51783   0.31270   Biso      1.000     C          -0.135035           
         C18       1.0000    0.97670   0.16578   0.01990   Biso      1.000     C          0.021122  
         C19       1.0000    0.76350   0.45059   0.25800   Biso      1.000     C          -0.115684           
         C20       1.0000    0.00550   0.10312   0.98930   Biso      1.000     C          -0.151677           
         C21       1.0000    0.83330   0.39864   0.33260   Biso      1.000     C          -0.016637           
         C22       1.0000    0.83810   0.32974   0.26700   Biso      1.000     C          0.63346   
         C23       1.0000    0.83640   0.53428   0.44430   Biso      1.000     C          -0.031427           
         C24       1.0000    0.98480   0.03412   0.01660   Biso      1.000     C          0.087375  
         C25       1.0000    0.76550   0.48217   0.81270   Biso      1.000     C          -0.135034           
         C26       1.0000    0.90590   0.09610   0.10560   Biso      1.000     C          -0.016784           
         C27       1.0000    0.59410   0.40390   0.89440   Biso      1.000     C          -0.016784           
         C28       1.0000    0.43390   0.53208   0.07630   Biso      1.000     C          -0.161907           
         C29       1.0000    0.40590   0.59610   0.10560   Biso      1.000     C          -0.016784           
         C30       1.0000    0.34310   0.10840   0.50380   Biso      1.000     C          0.624256  
         C31       1.0000    0.97670   0.83422   0.51990   Biso      1.000     C          0.021122  
         C32       1.0000    0.76350   0.54941   0.75800   Biso      1.000     C          -0.115683           
         C33       1.0000    0.00550   0.89688   0.48930   Biso      1.000     C          -0.151677           
         C34       1.0000    0.83330   0.60136   0.83260   Biso      1.000     C          -0.01664  
         C35       1.0000    0.83810   0.67026   0.76700   Biso      1.000     C          0.63346   
         C36       1.0000    0.83640   0.46572   0.94430   Biso      1.000     C          -0.03143  
         C37       1.0000    0.98480   0.96588   0.51660   Biso      1.000     C          0.087375  
         C38       1.0000    0.84310   0.39160   0.00380   Biso      1.000     C          0.624256  
         C39       1.0000    0.90590   0.90390   0.60560   Biso      1.000     C          -0.016784           
         C40       1.0000    0.93390   0.96792   0.57630   Biso      1.000     C          -0.161908           
         C41       1.0000    0.90360   0.58574   0.96440   Biso      1.000     C          -0.118031           
         C42       1.0000    0.66360   0.96572   0.55570   Biso      1.000     C          -0.031427           
         C43       1.0000    0.93390   0.03208   0.07630   Biso      1.000     C          -0.161908           
         C44       1.0000    0.66190   0.17026   0.73300   Biso      1.000     C          0.633461  
         C45       1.0000    0.49450   0.39688   0.01070   Biso      1.000     C          -0.151677           
         C46       1.0000    0.51520   0.46588   0.98340   Biso      1.000     C          0.087375  
         C47       1.0000    0.40360   0.91426   0.46440   Biso      1.000     C          -0.118034           
         C48       1.0000    0.40470   0.98121   0.51990   Biso      1.000     C          -0.083303           
         C49       1.0000    0.26550   0.01783   0.31270   Biso      1.000     C          -0.135035           
         C50       1.0000    0.47670   0.66578   0.01990   Biso      1.000     C          0.021127  
         C51       1.0000    0.26350   0.95059   0.25800   Biso      1.000     C          -0.115684           
         C52       1.0000    0.65690   0.89160   0.49620   Biso      1.000     C          0.624256  
         C53       1.0000    0.33330   0.89864   0.33260   Biso      1.000     C          -0.016637           
         C54       1.0000    0.33810   0.82974   0.26700   Biso      1.000     C          0.63346   
         C55       1.0000    0.33640   0.03428   0.44430   Biso      1.000     C          -0.031427           
         C56       1.0000    0.48480   0.53412   0.01660   Biso      1.000     C          0.087375  
         C57       1.0000    0.66670   0.10136   0.66740   Biso      1.000     C          -0.016638           
         C58       1.0000    0.50550   0.39688   0.48930   Biso      1.000     C          -0.151682           
         C59       1.0000    0.84310   0.60840   0.50380   Biso      1.000     C          0.624256  
         C60       1.0000    0.47670   0.33422   0.51990   Biso      1.000     C          0.021127  
         C61       1.0000    0.01520   0.96588   0.98340   Biso      1.000     C          0.087375  
         C62       1.0000    0.16360   0.46572   0.55570   Biso      1.000     C          -0.031433           
         C63       1.0000    0.16190   0.67026   0.73300   Biso      1.000     C          0.633461  
         C64       1.0000    0.16670   0.60136   0.66740   Biso      1.000     C          -0.016642           
         C65       1.0000    0.99450   0.89688   0.01070   Biso      1.000     C          -0.151682           
         C66       1.0000    0.26350   0.04941   0.75800   Biso      1.000     C          -0.115684           
         C67       1.0000    0.02330   0.83422   0.98010   Biso      1.000     C          0.021127  
         C68       1.0000    0.23450   0.48217   0.68730   Biso      1.000     C          -0.135032           
         C69       1.0000    0.09530   0.51879   0.48010   Biso      1.000     C          -0.083301           
         C70       1.0000    0.09640   0.58574   0.53560   Biso      1.000     C          -0.118029           
         C71       1.0000    0.09640   0.41426   0.03560   Biso      1.000     C          -0.118034           
         C72       1.0000    0.09530   0.48121   0.98010   Biso      1.000     C          -0.083303           
         C73       1.0000    0.23450   0.51783   0.18730   Biso      1.000     C          -0.135035           
         C74       1.0000    0.02330   0.16578   0.48010   Biso      1.000     C          0.021122  
         C75       1.0000    0.23650   0.45059   0.24200   Biso      1.000     C          -0.115684           
         C76       1.0000    0.99450   0.10312   0.51070   Biso      1.000     C          -0.151677           
         C77       1.0000    0.16670   0.39864   0.16740   Biso      1.000     C          -0.016637           
         C78       1.0000    0.16190   0.32974   0.23300   Biso      1.000     C          0.63346   
         C79       1.0000    0.16360   0.53428   0.05570   Biso      1.000     C          -0.031427           
         C80       1.0000    0.01520   0.03412   0.48340   Biso      1.000     C          0.087375  
         C81       1.0000    0.15690   0.60840   0.99620   Biso      1.000     C          0.624256  
         C82       1.0000    0.09410   0.09610   0.39440   Biso      1.000     C          -0.016784           
         C83       1.0000    0.06610   0.03208   0.42370   Biso      1.000     C          -0.161908           
         C84       1.0000    0.15690   0.39160   0.49620   Biso      1.000     C          0.624257  
         C85       1.0000    0.09410   0.90390   0.89440   Biso      1.000     C          -0.016784           
         C86       1.0000    0.23650   0.54941   0.74200   Biso      1.000     C          -0.115681           
         C87       1.0000    0.56610   0.53208   0.42370   Biso      1.000     C          -0.161907           
         C88       1.0000    0.26550   0.98217   0.81270   Biso      1.000     C          -0.135029           
         C89       1.0000    0.40470   0.01879   0.01990   Biso      1.000     C          -0.083301           
         C90       1.0000    0.40360   0.08574   0.96440   Biso      1.000     C          -0.11803  
         C91       1.0000    0.06610   0.96792   0.92370   Biso      1.000     C          -0.161908           
         C92       1.0000    0.59640   0.91426   0.03560   Biso      1.000     C          -0.118033           
         C93       1.0000    0.59530   0.98121   0.98010   Biso      1.000     C          -0.083303           
         C94       1.0000    0.73450   0.01783   0.18730   Biso      1.000     C          -0.135035           
         C95       1.0000    0.52330   0.66578   0.48010   Biso      1.000     C          0.021122  
         C96       1.0000    0.90470   0.51879   0.01990   Biso      1.000     C          -0.083299           
         C97       1.0000    0.49450   0.60312   0.51070   Biso      1.000     C          -0.151677           
         C98       1.0000    0.66670   0.89864   0.16740   Biso      1.000     C          -0.01664  
         C99       1.0000    0.66190   0.82974   0.23300   Biso      1.000     C          0.63346   
         C100      1.0000    0.59410   0.59610   0.39440   Biso      1.000     C          -0.016784           
         C101      1.0000    0.66360   0.03428   0.05570   Biso      1.000     C          -0.031427           
         C102      1.0000    0.65690   0.10840   0.99620   Biso      1.000     C          0.624256  
         C103      1.0000    0.51520   0.53412   0.48340   Biso      1.000     C          0.087375  
         C104      1.0000    0.73650   0.95059   0.24200   Biso      1.000     C          -0.115681           
         H1        1.0000    0.28500   0.55900   0.84000   Biso      1.000     H          0.083761  
         H2        1.0000    0.27900   0.44500   0.74300   Biso      1.000     H          0.103306  
         H3        1.0000    0.05000   0.61900   0.49100   Biso      1.000     H          0.120097  
         H4        1.0000    0.96300   0.89200   0.05900   Biso      1.000     H          0.135257  
         H5        1.0000    0.12900   0.90160   0.85500   Biso      1.000     H          0.131676  
         H6        1.0000    0.41500   0.51330   0.59500   Biso      1.000     H          0.133579  
         H7        1.0000    0.37100   0.40160   0.64500   Biso      1.000     H          0.131676  
         H8        1.0000    0.53700   0.39200   0.44100   Biso      1.000     H          0.135257  
         H9        1.0000    0.22100   0.94500   0.75700   Biso      1.000     H          0.103306  
         H10       1.0000    0.91500   0.01330   0.59500   Biso      1.000     H          0.133579  
         H11       1.0000    0.21500   0.05900   0.66000   Biso      1.000     H          0.083761  
         H12       1.0000    0.45800   0.00400   0.11400   Biso      1.000     H          0.115464  
         H13       1.0000    0.87100   0.90160   0.64500   Biso      1.000     H          0.131676  
         H14       1.0000    0.03700   0.89200   0.44100   Biso      1.000     H          0.135256  
         H15       1.0000    0.72100   0.44500   0.75700   Biso      1.000     H          0.103306  
         H16       1.0000    0.71500   0.55900   0.66000   Biso      1.000     H          0.083761  
         H17       1.0000    0.95800   0.50400   0.11400   Biso      1.000     H          0.115464  
         H18       1.0000    0.99100   0.78200   0.50600   Biso      1.000     H          0.150722  
         H19       1.0000    0.49100   0.28200   0.50600   Biso      1.000     H          0.150721  
         H20       1.0000    0.08500   0.01330   0.90500   Biso      1.000     H          0.133579  
         H21       1.0000    0.45000   0.11900   0.00900   Biso      1.000     H          0.120097  
         H22       1.0000    0.95000   0.61900   0.00900   Biso      1.000     H          0.120097  
         H23       1.0000    0.00900   0.78200   0.99400   Biso      1.000     H          0.150721  
         H24       1.0000    0.77900   0.05500   0.24300   Biso      1.000     H          0.103306  
         H25       1.0000    0.55000   0.11900   0.49100   Biso      1.000     H          0.120097  
         H26       1.0000    0.77900   0.94500   0.74300   Biso      1.000     H          0.103306  
         H27       1.0000    0.50900   0.71800   0.49400   Biso      1.000     H          0.150722  
         H28       1.0000    0.54200   0.99600   0.88600   Biso      1.000     H          0.115465  
         H29       1.0000    0.78500   0.94100   0.34000   Biso      1.000     H          0.083761  
         H30       1.0000    0.08500   0.98670   0.40500   Biso      1.000     H          0.133579  
         H31       1.0000    0.55000   0.88100   0.99100   Biso      1.000     H          0.120097  
         H32       1.0000    0.46300   0.60800   0.55900   Biso      1.000     H          0.135256  
         H33       1.0000    0.62900   0.59840   0.35500   Biso      1.000     H          0.131676  
         H34       1.0000    0.58500   0.48670   0.40500   Biso      1.000     H          0.133579  
         H35       1.0000    0.12900   0.09840   0.35500   Biso      1.000     H          0.131676  
         H36       1.0000    0.96300   0.10800   0.55900   Biso      1.000     H          0.135257  
         H37       1.0000    0.05000   0.38100   0.99100   Biso      1.000     H          0.120097  
         H38       1.0000    0.27900   0.55500   0.24300   Biso      1.000     H          0.103306  
         H39       1.0000    0.28500   0.44100   0.34000   Biso      1.000     H          0.083761  
         H40       1.0000    0.04200   0.49600   0.88600   Biso      1.000     H          0.115465  
         H41       1.0000    0.00900   0.21800   0.49400   Biso      1.000     H          0.150722  
         H42       1.0000    0.78500   0.05900   0.84000   Biso      1.000     H          0.083762  
         H43       1.0000    0.54200   0.00400   0.38600   Biso      1.000     H          0.115465  
         H44       1.0000    0.46300   0.39200   0.05900   Biso      1.000     H          0.135256  
         H45       1.0000    0.62900   0.40160   0.85500   Biso      1.000     H          0.131676  
         H46       1.0000    0.58500   0.51330   0.90500   Biso      1.000     H          0.133579  
         H47       1.0000    0.45800   0.99600   0.61400   Biso      1.000     H          0.115465  
         H48       1.0000    0.45000   0.88100   0.50900   Biso      1.000     H          0.120097  
         H49       1.0000    0.53700   0.60800   0.94100   Biso      1.000     H          0.135256  
         H50       1.0000    0.37100   0.59840   0.14500   Biso      1.000     H          0.131676  
         H51       1.0000    0.41500   0.48670   0.09500   Biso      1.000     H          0.133579  
         H52       1.0000    0.04200   0.50400   0.38600   Biso      1.000     H          0.115465  
         H53       1.0000    0.50900   0.28200   0.99400   Biso      1.000     H          0.150722  
         H54       1.0000    0.99100   0.21800   0.00600   Biso      1.000     H          0.150722  
         H55       1.0000    0.22100   0.05500   0.25700   Biso      1.000     H          0.103306  
         H56       1.0000    0.21500   0.94100   0.16000   Biso      1.000     H          0.083762  
         H57       1.0000    0.95800   0.49600   0.61400   Biso      1.000     H          0.115465  
         H58       1.0000    0.71500   0.44100   0.16000   Biso      1.000     H          0.083761  
         H59       1.0000    0.72100   0.55500   0.25700   Biso      1.000     H          0.103307  
         H60       1.0000    0.95000   0.38100   0.50900   Biso      1.000     H          0.120098  
         H61       1.0000    0.03700   0.10800   0.94100   Biso      1.000     H          0.135256  
         H62       1.0000    0.87100   0.09840   0.14500   Biso      1.000     H          0.131676  
         H63       1.0000    0.91500   0.98670   0.09500   Biso      1.000     H          0.133579  
         H64       1.0000    0.49100   0.71800   0.00600   Biso      1.000     H          0.150721  
         Mg1       1.0000    0.00000   0.69792   0.75000   Biso      1.000     Mg          1.380553  
         Mg2       1.0000    0.75000   0.25000   0.00000   Biso      1.000     Mg          1.358426  
         Mg3       1.0000    0.50000   0.19792   0.75000   Biso      1.000     Mg          1.380553  
         Mg4       1.0000    0.25000   0.25000   0.50000   Biso      1.000     Mg          1.358426  
         Mg5       1.0000    0.50000   0.80208   0.25000   Biso      1.000     Mg          1.380553  
         Mg6       1.0000    0.75000   0.75000   0.50000   Biso      1.000     Mg          1.358426  
         Mg7       1.0000    0.00000   0.30208   0.25000   Biso      1.000     Mg          1.380553  
         Mg8       1.0000    0.25000   0.75000   0.00000   Biso      1.000     Mg          1.358426  
         N1        1.0000    0.57141   0.66102   0.42130   Biso      1.000     N          0.353244  
         N2        1.0000    0.07141   0.83898   0.92130   Biso      1.000     N          0.353244  
         N3        1.0000    0.92859   0.83898   0.57870   Biso      1.000     N          0.353244  
         N4        1.0000    0.07141   0.16102   0.42130   Biso      1.000     N          0.353244  
         N5        1.0000    0.92859   0.16102   0.07870   Biso      1.000     N          0.353244  
         N6        1.0000    0.42859   0.33898   0.57870   Biso      1.000     N          0.353244  
         N7        1.0000    0.57141   0.33898   0.92130   Biso      1.000     N          0.353244  
         N8        1.0000    0.42859   0.66102   0.07870   Biso      1.000     N          0.353244  
         O1        1.0000    0.59866   0.27746   0.89026   Biso      1.000     O          -0.601929           
         O2        1.0000    0.58245   0.20332   0.67330   Biso      1.000     O          -0.679468           
         O3        1.0000    0.58488   0.88069   0.38010   Biso      1.000     O          -0.641877           
         O4        1.0000    0.72311   0.84549   0.56649   Biso      1.000     O          -0.659704           
         O5        1.0000    0.73549   0.18873   0.84432   Biso      1.000     O          -0.649344           
         O6        1.0000    0.09866   0.22254   0.39026   Biso      1.000     O          -0.601929           
         O7        1.0000    0.22311   0.34549   0.56649   Biso      1.000     O          -0.659704           
         O8        1.0000    0.08245   0.29668   0.17330   Biso      1.000     O          -0.679468           
         O9        1.0000    0.08488   0.61931   0.88010   Biso      1.000     O          -0.641877           
         O10       1.0000    0.22311   0.65451   0.06649   Biso      1.000     O          -0.659704           
         O11       1.0000    0.23549   0.31127   0.34432   Biso      1.000     O          -0.649344           
         O12       1.0000    0.59866   0.72254   0.39026   Biso      1.000     O          -0.601929           
         O13       1.0000    0.58245   0.79668   0.17330   Biso      1.000     O          -0.679468           
         O14       1.0000    0.58488   0.11931   0.88010   Biso      1.000     O          -0.641877           
         O15       1.0000    0.72311   0.15451   0.06649   Biso      1.000     O          -0.659704           
         O16       1.0000    0.73549   0.81127   0.34432   Biso      1.000     O          -0.649344           
         O17       1.0000    0.90134   0.22254   0.10974   Biso      1.000     O          -0.601929           
         O18       1.0000    0.91755   0.29668   0.32670   Biso      1.000     O          -0.679468           
         O19       1.0000    0.91512   0.61931   0.61990   Biso      1.000     O          -0.641877           
         O20       1.0000    0.77689   0.65451   0.43351   Biso      1.000     O          -0.659704           
         O21       1.0000    0.76451   0.31127   0.15568   Biso      1.000     O          -0.649344           
         O22       1.0000    0.40134   0.72254   0.10974   Biso      1.000     O          -0.601929           
         O23       1.0000    0.41755   0.79668   0.32670   Biso      1.000     O          -0.679468           
         O24       1.0000    0.41512   0.11931   0.61990   Biso      1.000     O          -0.641877           
         O25       1.0000    0.08488   0.38069   0.38010   Biso      1.000     O          -0.641877           
         O26       1.0000    0.08245   0.70332   0.67330   Biso      1.000     O          -0.679468           
         O27       1.0000    0.09866   0.77746   0.89026   Biso      1.000     O          -0.601929           
         O28       1.0000    0.26451   0.18873   0.65568   Biso      1.000     O          -0.649344           
         O29       1.0000    0.27689   0.84549   0.93351   Biso      1.000     O          -0.659704           
         O30       1.0000    0.41512   0.88069   0.11990   Biso      1.000     O          -0.641877           
         O31       1.0000    0.23549   0.68873   0.84432   Biso      1.000     O          -0.649344           
         O32       1.0000    0.41755   0.20332   0.82670   Biso      1.000     O          -0.679468           
         O33       1.0000    0.76451   0.68873   0.65568   Biso      1.000     O          -0.649344           
         O34       1.0000    0.91512   0.38069   0.11990   Biso      1.000     O          -0.641877           
         O35       1.0000    0.91755   0.70332   0.82670   Biso      1.000     O          -0.679468           
         O36       1.0000    0.90134   0.77746   0.60974   Biso      1.000     O          -0.601929           
         O37       1.0000    0.26451   0.81127   0.15568   Biso      1.000     O          -0.649344           
         O38       1.0000    0.27689   0.15451   0.43351   Biso      1.000     O          -0.659704           
         O39       1.0000    0.40134   0.27746   0.60974   Biso      1.000     O          -0.601929           
         O40       1.0000    0.77689   0.34549   0.93351   Biso      1.000     O          -0.659704 