
##########################################################################
#               Crystallographic Information Format file
#               Produced by PyCifRW module
#
#  This is a CIF file.  CIF has been adopted by the International
#  Union of Crystallography as the standard for data archiving and
#  transmission.
#
#  For information on this file format, follow the CIF links at
#  http://www.iucr.org
##########################################################################

data_image0

_cell_length_a                          14.139
_cell_length_b                          20.5709
_cell_length_c                          9.9284
_cell_angle_alpha                       90
_cell_angle_beta                        95.786
_cell_angle_gamma                       90
_symmetry_space_group_name_H-M          'P 1'
_symmetry_int_tables_number             1
loop_
  _symmetry_equiv_pos_as_xyz
         'x, y, z' 
loop_
  _atom_site_label
  _atom_site_occupancy
  _atom_site_fract_x
  _atom_site_fract_y
  _atom_site_fract_z
  _atom_site_thermal_displace_type
  _atom_site_B_iso_or_equiv
  _atom_site_type_symbol
  _atom_site_charge
         C1        1.0000    0.01719   0.68217   0.71930   Biso      1.000     C          0.5605    
         C2        1.0000    0.89850   0.42732   0.81540   Biso      1.000     C          -0.116036           
         C3        1.0000    0.55320   0.58503   0.08400   Biso      1.000     C          -0.236764           
         C4        1.0000    0.84560   0.37792   0.85620   Biso      1.000     C          -0.041763           
         C5        1.0000    0.64509   0.19651   0.32950   Biso      1.000     C          0.55935   
         C6        1.0000    0.13735   0.37804   0.28280   Biso      1.000     C          -0.077942           
         C7        1.0000    0.01610   0.06050   0.14240   Biso      1.000     C          -0.092732           
         C8        1.0000    0.20605   0.41097   0.21970   Biso      1.000     C          -0.249482           
         C9        1.0000    0.19559   0.41741   0.08100   Biso      1.000     C          0.277996  
         C10       1.0000    0.94050   0.64978   0.79030   Biso      1.000     C          -0.047955           
         C11       1.0000    0.12066   0.38721   0.00560   Biso      1.000     C          -0.220869           
         C12       1.0000    0.94749   0.64567   0.93020   Biso      1.000     C          -0.083762           
         C13       1.0000    0.05251   0.35433   0.06980   Biso      1.000     C          -0.083762           
         C14       1.0000    0.05950   0.35022   0.20970   Biso      1.000     C          -0.047957           
         C15       1.0000    0.98281   0.31783   0.28070   Biso      1.000     C          0.5605    
         C16       1.0000    0.62644   0.46431   0.52340   Biso      1.000     C          -0.090833           
         C17       1.0000    0.52931   0.48040   0.45430   Biso      1.000     C          -0.194296           
         C18       1.0000    0.87934   0.61279   0.99440   Biso      1.000     C          -0.22087  
         C19       1.0000    0.66995   0.51243   0.92370   Biso      1.000     C          0.152951  
         C20       1.0000    0.80441   0.58259   0.91900   Biso      1.000     C          0.277991  
         C21       1.0000    0.79395   0.58903   0.78030   Biso      1.000     C          -0.249474           
         C22       1.0000    0.73002   0.45872   0.32870   Biso      1.000     C          -0.250911           
         C23       1.0000    0.57843   0.15897   0.40960   Biso      1.000     C          -0.056726           
         C24       1.0000    0.86265   0.62196   0.71720   Biso      1.000     C          -0.077941           
         C25       1.0000    0.92470   0.34044   0.69940   Biso      1.000     C          0.106395  
         C26       1.0000    0.01610   0.43950   0.64240   Biso      1.000     C          -0.092732           
         C27       1.0000    0.44680   0.41497   0.91600   Biso      1.000     C          -0.236761           
         C28       1.0000    0.45736   0.08692   0.55540   Biso      1.000     C          0.27795   
         C29       1.0000    0.50746   0.37904   0.84440   Biso      1.000     C          -0.084865           
         C30       1.0000    0.57843   0.34103   0.90960   Biso      1.000     C          -0.056723           
         C31       1.0000    0.64509   0.30349   0.82950   Biso      1.000     C          0.559352  
         C32       1.0000    0.52806   0.12465   0.62270   Biso      1.000     C          -0.212459           
         C33       1.0000    0.44680   0.08503   0.41600   Biso      1.000     C          -0.236762           
         C34       1.0000    0.62644   0.03569   0.02340   Biso      1.000     C          -0.090837           
         C35       1.0000    0.58763   0.16056   0.55030   Biso      1.000     C          -0.0789   
         C36       1.0000    0.58763   0.33944   0.05030   Biso      1.000     C          -0.078902           
         C37       1.0000    0.52931   0.01960   0.95430   Biso      1.000     C          -0.194296           
         C38       1.0000    0.73002   0.04128   0.82870   Biso      1.000     C          -0.250956           
         C39       1.0000    0.33005   0.01243   0.57630   Biso      1.000     C          0.15295   
         C40       1.0000    0.77549   0.09065   0.77180   Biso      1.000     C          -0.099085           
         C41       1.0000    0.33005   0.48757   0.07630   Biso      1.000     C          0.15295   
         C42       1.0000    0.70611   0.13311   0.93430   Biso      1.000     C          0.085373  
         C43       1.0000    0.50746   0.12096   0.34440   Biso      1.000     C          -0.084863           
         C44       1.0000    0.41237   0.66056   0.94970   Biso      1.000     C          -0.078901           
         C45       1.0000    0.96500   0.47891   0.53540   Biso      1.000     C          -0.193585           
         C46       1.0000    0.49254   0.62096   0.15560   Biso      1.000     C          -0.084867           
         C47       1.0000    0.47194   0.62465   0.87730   Biso      1.000     C          -0.212462           
         C48       1.0000    0.54264   0.58692   0.94460   Biso      1.000     C          0.277948  
         C49       1.0000    0.52806   0.37535   0.12270   Biso      1.000     C          -0.212459           
         C50       1.0000    0.15440   0.62208   0.14380   Biso      1.000     C          -0.041763           
         C51       1.0000    0.10150   0.57268   0.18460   Biso      1.000     C          -0.11602  
         C52       1.0000    0.70611   0.36689   0.43430   Biso      1.000     C          0.08537   
         C53       1.0000    0.03500   0.97891   0.96460   Biso      1.000     C          -0.193586           
         C54       1.0000    0.26998   0.95872   0.17130   Biso      1.000     C          -0.250927           
         C55       1.0000    0.47069   0.98040   0.04570   Biso      1.000     C          -0.194296           
         C56       1.0000    0.98390   0.93950   0.85760   Biso      1.000     C          -0.092731           
         C57       1.0000    0.84560   0.12208   0.35620   Biso      1.000     C          -0.041779           
         C58       1.0000    0.07530   0.84044   0.80060   Biso      1.000     C          0.106405  
         C59       1.0000    0.89850   0.07268   0.31540   Biso      1.000     C          -0.116019           
         C60       1.0000    0.10150   0.92732   0.68460   Biso      1.000     C          -0.116037           
         C61       1.0000    0.37356   0.96431   0.97660   Biso      1.000     C          -0.090835           
         C62       1.0000    0.22451   0.90935   0.22820   Biso      1.000     C          -0.099105           
         C63       1.0000    0.15440   0.87792   0.64380   Biso      1.000     C          -0.041746           
         C64       1.0000    0.86265   0.87804   0.21720   Biso      1.000     C          -0.077941           
         C65       1.0000    0.96500   0.02109   0.03540   Biso      1.000     C          -0.193585           
         C66       1.0000    0.79395   0.91097   0.28030   Biso      1.000     C          -0.249482           
         C67       1.0000    0.80441   0.91741   0.41900   Biso      1.000     C          0.277996  
         C68       1.0000    0.35491   0.69651   0.17050   Biso      1.000     C          0.559367  
         C69       1.0000    0.87934   0.88721   0.49440   Biso      1.000     C          -0.22087  
         C70       1.0000    0.42157   0.65897   0.09040   Biso      1.000     C          -0.056724           
         C71       1.0000    0.94749   0.85433   0.43020   Biso      1.000     C          -0.083761           
         C72       1.0000    0.94050   0.85022   0.29030   Biso      1.000     C          -0.047957           
         C73       1.0000    0.01719   0.81783   0.21930   Biso      1.000     C          0.5605    
         C74       1.0000    0.92470   0.15956   0.19940   Biso      1.000     C          0.106397  
         C75       1.0000    0.98281   0.18217   0.78070   Biso      1.000     C          0.560502  
         C76       1.0000    0.29389   0.63311   0.56570   Biso      1.000     C          0.085376  
         C77       1.0000    0.22451   0.59065   0.72820   Biso      1.000     C          -0.099117           
         C78       1.0000    0.05950   0.14978   0.70970   Biso      1.000     C          -0.047954           
         C79       1.0000    0.66995   0.98757   0.42370   Biso      1.000     C          0.152951  
         C80       1.0000    0.07530   0.65956   0.30060   Biso      1.000     C          0.106405  
         C81       1.0000    0.41237   0.83944   0.44970   Biso      1.000     C          -0.078901           
         C82       1.0000    0.05251   0.14567   0.56980   Biso      1.000     C          -0.083764           
         C83       1.0000    0.47194   0.87535   0.37730   Biso      1.000     C          -0.212462           
         C84       1.0000    0.54264   0.91308   0.44460   Biso      1.000     C          0.277949  
         C85       1.0000    0.98390   0.56050   0.35760   Biso      1.000     C          -0.092731           
         C86       1.0000    0.55320   0.91497   0.58400   Biso      1.000     C          -0.236764           
         C87       1.0000    0.13735   0.12196   0.78280   Biso      1.000     C          -0.077944           
         C88       1.0000    0.12066   0.11279   0.50560   Biso      1.000     C          -0.22087  
         C89       1.0000    0.42157   0.84103   0.59040   Biso      1.000     C          -0.056725           
         C90       1.0000    0.35491   0.80349   0.67050   Biso      1.000     C          0.559367  
         C91       1.0000    0.77549   0.40935   0.27180   Biso      1.000     C          -0.099114           
         C92       1.0000    0.03500   0.52109   0.46460   Biso      1.000     C          -0.193585           
         C93       1.0000    0.37356   0.53569   0.47660   Biso      1.000     C          -0.090834           
         C94       1.0000    0.19559   0.08259   0.58100   Biso      1.000     C          0.27799   
         C95       1.0000    0.20605   0.08903   0.71970   Biso      1.000     C          -0.249474           
         C96       1.0000    0.47069   0.51960   0.54570   Biso      1.000     C          -0.194297           
         C97       1.0000    0.26998   0.54128   0.67130   Biso      1.000     C          -0.250922           
         C98       1.0000    0.29389   0.86689   0.06570   Biso      1.000     C          0.085376  
         C99       1.0000    0.49254   0.87904   0.65560   Biso      1.000     C          -0.084866           
         C100      1.0000    0.45736   0.41308   0.05540   Biso      1.000     C          0.277951  
         Cu1       1.0000    0.81016   0.26436   0.30468   Biso      1.000     Cu          0.812623  
         Cu2       1.0000    0.18983   0.73564   0.69532   Biso      1.000     Cu          0.812673  
         Cu3       1.0000    0.81016   0.23564   0.80468   Biso      1.000     Cu          0.812622  
         Cu4       1.0000    0.18983   0.76436   0.19532   Biso      1.000     Cu          0.812677  
         H1        1.0000    0.53530   0.12580   0.71680   Biso      1.000     H          0.132063  
         H2        1.0000    0.94530   0.53240   0.29590   Biso      1.000     H          0.110024  
         H3        1.0000    0.94180   0.59050   0.39770   Biso      1.000     H          0.117406  
         H4        1.0000    0.08060   0.49340   0.42560   Biso      1.000     H          0.101584  
         H5        1.0000    0.06970   0.54940   0.53040   Biso      1.000     H          0.107953  
         H6        1.0000    0.68460   0.33720   0.49500   Biso      1.000     H          0.112325  
         H7        1.0000    0.31540   0.83720   0.00500   Biso      1.000     H          0.112329  
         H8        1.0000    0.18830   0.91360   0.30080   Biso      1.000     H          0.120185  
         H9        1.0000    0.46370   0.00500   0.12740   Biso      1.000     H          0.108429  
         H10       1.0000    0.93030   0.04940   0.96960   Biso      1.000     H          0.107954  
         H11       1.0000    0.50400   0.94040   0.07170   Biso      1.000     H          0.107779  
         H12       1.0000    0.91940   0.99340   0.07440   Biso      1.000     H          0.101584  
         H13       1.0000    0.38070   0.93690   0.89870   Biso      1.000     H          0.108023  
         H14       1.0000    0.34240   0.00420   0.94420   Biso      1.000     H          0.103322  
         H15       1.0000    0.81170   0.41360   0.19920   Biso      1.000     H          0.120182  
         H16       1.0000    0.05160   0.68700   0.36360   Biso      1.000     H          0.119345  
         H17       1.0000    0.19560   0.61960   0.07660   Biso      1.000     H          0.123392  
         H18       1.0000    0.39920   0.05980   0.37050   Biso      1.000     H          0.122447  
         H19       1.0000    0.63460   0.18620   0.59600   Biso      1.000     H          0.109347  
         H20       1.0000    0.50030   0.11950   0.25030   Biso      1.000     H          0.114557  
         H21       1.0000    0.30500   0.98580   0.64510   Biso      1.000     H          0.063731  
         H22       1.0000    0.35760   0.98360   0.51350   Biso      1.000     H          0.074216  
         H23       1.0000    0.46470   0.62580   0.78320   Biso      1.000     H          0.132062  
         H24       1.0000    0.60080   0.55980   0.12950   Biso      1.000     H          0.122445  
         H25       1.0000    0.10020   0.53020   0.15240   Biso      1.000     H          0.128266  
         H26       1.0000    0.65760   0.50420   0.55580   Biso      1.000     H          0.103322  
         H27       1.0000    0.49600   0.44040   0.42830   Biso      1.000     H          0.107777  
         H28       1.0000    0.53630   0.50500   0.37260   Biso      1.000     H          0.108429  
         H29       1.0000    0.99840   0.66520   0.98150   Biso      1.000     H          0.111765  
         H30       1.0000    0.88400   0.61100   0.08840   Biso      1.000     H          0.131245  
         H31       1.0000    0.74130   0.57140   0.72940   Biso      1.000     H          0.124663  
         H32       1.0000    0.85620   0.62540   0.62330   Biso      1.000     H          0.114749  
         H33       1.0000    0.61930   0.43690   0.60130   Biso      1.000     H          0.10802   
         H34       1.0000    0.05820   0.09050   0.10230   Biso      1.000     H          0.117407  
         H35       1.0000    0.35760   0.51640   0.01350   Biso      1.000     H          0.074215  
         H36       1.0000    0.94840   0.18700   0.13640   Biso      1.000     H          0.119346  
         H37       1.0000    0.94840   0.31300   0.63640   Biso      1.000     H          0.119346  
         H38       1.0000    0.89980   0.46980   0.84760   Biso      1.000     H          0.128268  
         H39       1.0000    0.80440   0.38040   0.92340   Biso      1.000     H          0.123392  
         H40       1.0000    0.05470   0.03240   0.20410   Biso      1.000     H          0.110026  
         H41       1.0000    0.25870   0.42860   0.27060   Biso      1.000     H          0.124664  
         H42       1.0000    0.11600   0.38900   0.91160   Biso      1.000     H          0.131246  
         H43       1.0000    0.00160   0.33480   0.01850   Biso      1.000     H          0.111764  
         H44       1.0000    0.64240   0.01640   0.48650   Biso      1.000     H          0.074213  
         H45       1.0000    0.69500   0.01420   0.35490   Biso      1.000     H          0.063728  
         H46       1.0000    0.36540   0.81380   0.40400   Biso      1.000     H          0.10935   
         H47       1.0000    0.46470   0.87420   0.28320   Biso      1.000     H          0.132062  
         H48       1.0000    0.60080   0.94020   0.62950   Biso      1.000     H          0.122443  
         H49       1.0000    0.49970   0.88050   0.74970   Biso      1.000     H          0.114555  
         H50       1.0000    0.34240   0.49580   0.44420   Biso      1.000     H          0.103322  
         H51       1.0000    0.05470   0.46760   0.70410   Biso      1.000     H          0.110026  
         H52       1.0000    0.38070   0.56310   0.39870   Biso      1.000     H          0.108022  
         H53       1.0000    0.46370   0.49500   0.62740   Biso      1.000     H          0.108429  
         H54       1.0000    0.18830   0.58640   0.80080   Biso      1.000     H          0.120185  
         H55       1.0000    0.31540   0.66280   0.50500   Biso      1.000     H          0.112328  
         H56       1.0000    0.06970   0.95060   0.03040   Biso      1.000     H          0.107953  
         H57       1.0000    0.08060   0.00660   0.92560   Biso      1.000     H          0.101585  
         H58       1.0000    0.94180   0.90950   0.89770   Biso      1.000     H          0.117406  
         H59       1.0000    0.94530   0.96760   0.79590   Biso      1.000     H          0.110024  
         H60       1.0000    0.05160   0.81300   0.86360   Biso      1.000     H          0.119345  
         H61       1.0000    0.10020   0.96980   0.65240   Biso      1.000     H          0.128268  
         H62       1.0000    0.19560   0.88040   0.57660   Biso      1.000     H          0.123391  
         H63       1.0000    0.85620   0.87460   0.12330   Biso      1.000     H          0.114748  
         H64       1.0000    0.74130   0.92860   0.22940   Biso      1.000     H          0.124664  
         H65       1.0000    0.88400   0.88900   0.58840   Biso      1.000     H          0.131244  
         H66       1.0000    0.99840   0.83480   0.48150   Biso      1.000     H          0.111764  
         H67       1.0000    0.50400   0.55960   0.57170   Biso      1.000     H          0.107779  
         H68       1.0000    0.05820   0.40950   0.60230   Biso      1.000     H          0.117406  
         H69       1.0000    0.14380   0.37460   0.37670   Biso      1.000     H          0.11475   
         H70       1.0000    0.50030   0.38050   0.75030   Biso      1.000     H          0.114558  
         H71       1.0000    0.65760   0.99580   0.05580   Biso      1.000     H          0.103321  
         H72       1.0000    0.91940   0.50660   0.57440   Biso      1.000     H          0.101585  
         H73       1.0000    0.39920   0.44020   0.87050   Biso      1.000     H          0.122446  
         H74       1.0000    0.53530   0.37420   0.21680   Biso      1.000     H          0.132062  
         H75       1.0000    0.63460   0.31380   0.09600   Biso      1.000     H          0.109347  
         H76       1.0000    0.30500   0.51420   0.14510   Biso      1.000     H          0.063731  
         H77       1.0000    0.64240   0.48360   0.98650   Biso      1.000     H          0.074213  
         H78       1.0000    0.69500   0.48580   0.85490   Biso      1.000     H          0.063728  
         H79       1.0000    0.36540   0.68620   0.90400   Biso      1.000     H          0.10935   
         H80       1.0000    0.00160   0.16520   0.51850   Biso      1.000     H          0.111765  
         H81       1.0000    0.11600   0.11100   0.41160   Biso      1.000     H          0.131246  
         H82       1.0000    0.25870   0.07140   0.77060   Biso      1.000     H          0.124664  
         H83       1.0000    0.14380   0.12540   0.87670   Biso      1.000     H          0.11475   
         H84       1.0000    0.80440   0.11960   0.42340   Biso      1.000     H          0.123394  
         H85       1.0000    0.89980   0.03020   0.34760   Biso      1.000     H          0.128267  
         H86       1.0000    0.61930   0.06310   0.10130   Biso      1.000     H          0.108021  
         H87       1.0000    0.49600   0.05960   0.92830   Biso      1.000     H          0.107776  
         H88       1.0000    0.49970   0.61950   0.24970   Biso      1.000     H          0.114556  
         H89       1.0000    0.93030   0.45060   0.46960   Biso      1.000     H          0.107953  
         H90       1.0000    0.68460   0.16280   0.99500   Biso      1.000     H          0.112326  
         H91       1.0000    0.81170   0.08640   0.69920   Biso      1.000     H          0.120181  
         H92       1.0000    0.53630   0.99500   0.87260   Biso      1.000     H          0.108429  
         N1        1.0000    0.05042   0.90280   0.78210   Biso      1.000     N          0.076588  
         N2        1.0000    0.76012   0.35204   0.33740   Biso      1.000     N          -0.235804           
         N3        1.0000    0.94958   0.09720   0.21790   Biso      1.000     N          0.076586  
         N4        1.0000    0.86239   0.17677   0.28250   Biso      1.000     N          -0.270694           
         N5        1.0000    0.23988   0.85204   0.16260   Biso      1.000     N          -0.235802           
         N6        1.0000    0.31338   0.93076   0.06710   Biso      1.000     N          0.059915  
         N7        1.0000    0.13761   0.67677   0.21750   Biso      1.000     N          -0.270737           
         N8        1.0000    0.05042   0.59720   0.28210   Biso      1.000     N          0.076586  
         N9        1.0000    0.68662   0.06924   0.93290   Biso      1.000     N          0.059927  
         N10       1.0000    0.76012   0.14796   0.83740   Biso      1.000     N          -0.235805           
         N11       1.0000    0.94958   0.40280   0.71790   Biso      1.000     N          0.076588  
         N12       1.0000    0.86239   0.32323   0.78250   Biso      1.000     N          -0.270693           
         N13       1.0000    0.31338   0.56924   0.56710   Biso      1.000     N          0.059914  
         N14       1.0000    0.23988   0.64796   0.66260   Biso      1.000     N          -0.235798           
         N15       1.0000    0.13761   0.82323   0.71750   Biso      1.000     N          -0.270739           
         N16       1.0000    0.68662   0.43076   0.43290   Biso      1.000     N          0.059908  
         O1        1.0000    0.09171   0.69865   0.79597   Biso      1.000     O          -0.501335           
         O2        1.0000    0.00676   0.69003   0.59610   Biso      1.000     O          -0.56925  
         O3        1.0000    0.74464   0.54761   0.99341   Biso      1.000     O          -0.234456           
         O4        1.0000    0.36471   0.69438   0.29470   Biso      1.000     O          -0.555609           
         O5        1.0000    0.40150   0.44669   0.13797   Biso      1.000     O          -0.243261           
         O6        1.0000    0.71048   0.22740   0.40100   Biso      1.000     O          -0.497068           
         O7        1.0000    0.09171   0.80135   0.29597   Biso      1.000     O          -0.501338           
         O8        1.0000    0.00676   0.80997   0.09610   Biso      1.000     O          -0.569251           
         O9        1.0000    0.74464   0.95239   0.49341   Biso      1.000     O          -0.234459           
         O10       1.0000    0.36471   0.80562   0.79470   Biso      1.000     O          -0.555609           
         O11       1.0000    0.28952   0.77260   0.59900   Biso      1.000     O          -0.497094           
         O12       1.0000    0.59850   0.94669   0.36203   Biso      1.000     O          -0.243263           
         O13       1.0000    0.90829   0.30135   0.20403   Biso      1.000     O          -0.501308           
         O14       1.0000    0.40150   0.05331   0.63797   Biso      1.000     O          -0.24326  
         O15       1.0000    0.99324   0.30997   0.40390   Biso      1.000     O          -0.569251           
         O16       1.0000    0.63529   0.30562   0.70530   Biso      1.000     O          -0.555601           
         O17       1.0000    0.71048   0.27260   0.90100   Biso      1.000     O          -0.49707  
         O18       1.0000    0.28952   0.72740   0.09900   Biso      1.000     O          -0.497097           
         O19       1.0000    0.90829   0.19865   0.70403   Biso      1.000     O          -0.501308           
         O20       1.0000    0.99324   0.19003   0.90390   Biso      1.000     O          -0.569252           
         O21       1.0000    0.25536   0.04761   0.50659   Biso      1.000     O          -0.234456           
         O22       1.0000    0.63529   0.19438   0.20530   Biso      1.000     O          -0.555599           
         O23       1.0000    0.25536   0.45239   0.00659   Biso      1.000     O          -0.234457           
         O24       1.0000    0.59850   0.55331   0.86203   Biso      1.000     O          -0.243264 