
##########################################################################
#               Crystallographic Information Format file
#               Produced by PyCifRW module
#
#  This is a CIF file.  CIF has been adopted by the International
#  Union of Crystallography as the standard for data archiving and
#  transmission.
#
#  For information on this file format, follow the CIF links at
#  http://www.iucr.org
##########################################################################

data_image0

_cell_length_a                          7.5781
_cell_length_b                          9.8113
_cell_length_c                          11.7986
_cell_angle_alpha                       114.06
_cell_angle_beta                        108.045
_cell_angle_gamma                       91.344
_symmetry_space_group_name_H-M          'P 1'
_symmetry_int_tables_number             1
loop_
  _symmetry_equiv_pos_as_xyz
         'x, y, z' 
loop_
  _atom_site_label
  _atom_site_occupancy
  _atom_site_fract_x
  _atom_site_fract_y
  _atom_site_fract_z
  _atom_site_thermal_displace_type
  _atom_site_B_iso_or_equiv
  _atom_site_type_symbol
  _atom_site_charge
         C1        1.0000    0.64500   0.43600   0.40400   Biso      1.000     C          -0.106807           
         C2        1.0000    0.03600   0.74000   0.19200   Biso      1.000     C          0.44432   
         C3        1.0000    0.49200   0.93100   0.46320   Biso      1.000     C          0.10454300000000001           
         C4        1.0000    0.16400   0.00100   0.37800   Biso      1.000     C          -0.11413599999999999          
         C5        1.0000    0.70100   0.89500   0.51200   Biso      1.000     C          -0.13484200000000002          
         C6        1.0000    0.29900   0.10500   0.48800   Biso      1.000     C          -0.134831           
         C7        1.0000    0.00800   0.52400   0.45950   Biso      1.000     C          0.102264  
         C8        1.0000    0.56600   0.48000   0.20200   Biso      1.000     C          0.447755  
         C9        1.0000    0.09000   0.48300   0.65760   Biso      1.000     C          -0.147759           
         C10       1.0000    0.69700   0.47800   0.31770   Biso      1.000     C          -0.010715           
         C11       1.0000    0.22600   0.56200   0.48400   Biso      1.000     C          -0.135018           
         C12       1.0000    0.19200   0.85300   0.31200   Biso      1.000     C          0.007094  
         C13       1.0000    0.35500   0.56400   0.59600   Biso      1.000     C          -0.106804           
         C14       1.0000    0.38700   0.82100   0.35050   Biso      1.000     C          -0.14261300000000002          
         C15       1.0000    0.43400   0.52000   0.79800   Biso      1.000     C          0.44775600000000004           
         C16       1.0000    0.99200   0.47600   0.54050   Biso      1.000     C          0.102362  
         C17       1.0000    0.83600   0.99900   0.62200   Biso      1.000     C          -0.114121           
         C18       1.0000    0.50800   0.06900   0.53680   Biso      1.000     C          0.10461500000000001           
         C19       1.0000    0.77400   0.43800   0.51600   Biso      1.000     C          -0.135021           
         C20       1.0000    0.61300   0.17900   0.64950   Biso      1.000     C          -0.142623           
         C21       1.0000    0.80800   0.14700   0.68800   Biso      1.000     C          0.007093  
         C22       1.0000    0.96400   0.26000   0.80800   Biso      1.000     C          0.444321  
         C23       1.0000    0.30300   0.52200   0.68230   Biso      1.000     C          -0.010711           
         C24       1.0000    0.91000   0.51700   0.34240   Biso      1.000     C          -0.14771700000000001          
         Cd1       1.0000    0.24247   0.48197   0.00163   Biso      1.000     Cd          1.006501  
         Cd2       1.0000    0.75753   0.51803   0.99837   Biso      1.000     Cd          1.006501  
         H1        1.0000    0.96110   0.53360   0.28380   Biso      1.000     H          0.149135  
         H2        1.0000    0.42880   0.73270   0.30060   Biso      1.000     H          0.138658  
         H3        1.0000    0.51550   0.40450   0.38400   Biso      1.000     H          0.128194  
         H4        1.0000    0.04700   0.02970   0.34420   Biso      1.000     H          0.133671  
         H5        1.0000    0.73400   0.41750   0.57670   Biso      1.000     H          0.128118  
         H6        1.0000    0.27120   0.20080   0.53670   Biso      1.000     H          0.112115  
         H7        1.0000    0.03890   0.46640   0.71620   Biso      1.000     H          0.14913900000000002           
         H8        1.0000    0.26600   0.58250   0.42330   Biso      1.000     H          0.128117  
         H9        1.0000    0.48450   0.59550   0.61600   Biso      1.000     H          0.128194  
         H10       1.0000    0.95300   0.97030   0.65580   Biso      1.000     H          0.13367   
         H11       1.0000    0.57120   0.26730   0.69940   Biso      1.000     H          0.138659  
         H12       1.0000    0.72880   0.79920   0.46330   Biso      1.000     H          0.112115  
         O1        1.0000    0.06410   0.58260   0.14170   Biso      1.000     O          -0.588888           
         O2        1.0000    0.58910   0.56750   0.14960   Biso      1.000     O          -0.49852299999999994          
         O3        1.0000    0.86000   0.77190   0.15240   Biso      1.000     O          -0.450662           
         O4        1.0000    0.64300   0.60100   0.83920   Biso      1.000     O          -0.572524           
         O5        1.0000    0.93590   0.41740   0.85830   Biso      1.000     O          -0.588888           
         O6        1.0000    0.41090   0.43250   0.85040   Biso      1.000     O          -0.49852299999999994          
         O7        1.0000    0.14000   0.22810   0.84760   Biso      1.000     O          -0.450662           
         O8        1.0000    0.35700   0.39900   0.16080   Biso      1.000     O          -0.572524 