
##########################################################################
#               Crystallographic Information Format file
#               Produced by PyCifRW module
#
#  This is a CIF file.  CIF has been adopted by the International
#  Union of Crystallography as the standard for data archiving and
#  transmission.
#
#  For information on this file format, follow the CIF links at
#  http://www.iucr.org
##########################################################################

data_image0

_cell_length_a                          15.4
_cell_length_b                          6.7287
_cell_length_c                          14.252
_cell_angle_alpha                       90
_cell_angle_beta                        90
_cell_angle_gamma                       90
_symmetry_space_group_name_H-M          'P 1'
_symmetry_int_tables_number             1
loop_
  _symmetry_equiv_pos_as_xyz
         'x, y, z' 
loop_
  _atom_site_label
  _atom_site_occupancy
  _atom_site_fract_x
  _atom_site_fract_y
  _atom_site_fract_z
  _atom_site_thermal_displace_type
  _atom_site_B_iso_or_equiv
  _atom_site_type_symbol
  _atom_site_charge
         C1        1.0000    0.12840   0.25000   0.60410   Biso      1.000     C          0.619804  
         C2        1.0000    0.89040   0.75000   0.65080   Biso      1.000     C          0.10120900000000001           
         C3        1.0000    0.49670   0.25000   0.00740   Biso      1.000     C          0.037262  
         C4        1.0000    0.52010   0.25000   0.16740   Biso      1.000     C          0.071379  
         C5        1.0000    0.60960   0.25000   0.15080   Biso      1.000     C          0.10120900000000001           
         C6        1.0000    0.58670   0.25000   0.99240   Biso      1.000     C          0.08333   
         C7        1.0000    0.42770   0.25000   0.93170   Biso      1.000     C          0.564163  
         C8        1.0000    0.47730   0.25000   0.26230   Biso      1.000     C          0.557451  
         C9        1.0000    0.50330   0.75000   0.99260   Biso      1.000     C          0.037262  
         C10       1.0000    0.67670   0.25000   0.22720   Biso      1.000     C          0.606992  
         C11       1.0000    0.87160   0.75000   0.39590   Biso      1.000     C          0.619804  
         C12       1.0000    0.82330   0.75000   0.72720   Biso      1.000     C          0.606993  
         C13       1.0000    0.02270   0.75000   0.76230   Biso      1.000     C          0.5574439999999999  
         C14       1.0000    0.07230   0.75000   0.43170   Biso      1.000     C          0.564163  
         C15       1.0000    0.17670   0.25000   0.27280   Biso      1.000     C          0.606991  
         C16       1.0000    0.00330   0.75000   0.50740   Biso      1.000     C          0.037264  
         C17       1.0000    0.97990   0.75000   0.66740   Biso      1.000     C          0.071381  
         C18       1.0000    0.62840   0.25000   0.89590   Biso      1.000     C          0.619805  
         C19       1.0000    0.47990   0.75000   0.83260   Biso      1.000     C          0.071379  
         C20       1.0000    0.91330   0.75000   0.49240   Biso      1.000     C          0.083332  
         C21       1.0000    0.08670   0.25000   0.50760   Biso      1.000     C          0.08333   
         C22       1.0000    0.02010   0.25000   0.33260   Biso      1.000     C          0.071379  
         C23       1.0000    0.97730   0.25000   0.23770   Biso      1.000     C          0.5574520000000001  
         C24       1.0000    0.99670   0.25000   0.49260   Biso      1.000     C          0.037264  
         C25       1.0000    0.41330   0.75000   0.00760   Biso      1.000     C          0.083328  
         C26       1.0000    0.57230   0.75000   0.06830   Biso      1.000     C          0.564163  
         C27       1.0000    0.52270   0.75000   0.73770   Biso      1.000     C          0.55745   
         C28       1.0000    0.32330   0.75000   0.77280   Biso      1.000     C          0.606992  
         C29       1.0000    0.37160   0.75000   0.10410   Biso      1.000     C          0.6198060000000001  
         C30       1.0000    0.10960   0.25000   0.34920   Biso      1.000     C          0.10120900000000001           
         C31       1.0000    0.92770   0.25000   0.56830   Biso      1.000     C          0.5641619999999999  
         C32       1.0000    0.39040   0.75000   0.84920   Biso      1.000     C          0.101207  
         Eu1       1.0000    0.19665   0.75000   0.62359   Biso      1.000     Eu          1.380811  
         Eu2       1.0000    0.30335   0.25000   0.12359   Biso      1.000     Eu          1.380809  
         Eu3       1.0000    0.69665   0.75000   0.87641   Biso      1.000     Eu          1.3808120000000002  
         Eu4       1.0000    0.80335   0.25000   0.37641   Biso      1.000     Eu          1.3808120000000002  
         K1        1.0000    0.23280   0.25000   0.80950   Biso      1.000     K          0.910479  
         K2        1.0000    0.26720   0.75000   0.30950   Biso      1.000     K          0.910481  
         K3        1.0000    0.76720   0.75000   0.19050   Biso      1.000     K          0.91048   
         K4        1.0000    0.73280   0.25000   0.69050   Biso      1.000     K          0.910479  
         N1        1.0000    0.96660   0.25000   0.40520   Biso      1.000     N          -0.21856399999999998          
         N2        1.0000    0.53340   0.75000   0.90520   Biso      1.000     N          -0.218563           
         N3        1.0000    0.14210   0.25000   0.43650   Biso      1.000     N          -0.190984           
         N4        1.0000    0.35790   0.75000   0.93650   Biso      1.000     N          -0.190978           
         N5        1.0000    0.85790   0.75000   0.56350   Biso      1.000     N          -0.190995           
         N6        1.0000    0.03340   0.75000   0.59480   Biso      1.000     N          -0.218569           
         N7        1.0000    0.64210   0.25000   0.06350   Biso      1.000     N          -0.19098099999999998          
         N8        1.0000    0.46660   0.25000   0.09480   Biso      1.000     N          -0.21856399999999998          
         O1        1.0000    0.35190   0.58630   0.13890   Biso      1.000     O          -0.596587           
         O2        1.0000    0.84920   0.25000   0.53650   Biso      1.000     O          -0.696484           
         O3        1.0000    0.95080   0.25000   0.64990   Biso      1.000     O          -0.452334           
         O4        1.0000    0.89520   0.25000   0.23850   Biso      1.000     O          -0.554016           
         O5        1.0000    0.02400   0.25000   0.16690   Biso      1.000     O          -0.387232           
         O6        1.0000    0.29000   0.59170   0.74900   Biso      1.000     O          -0.620042           
         O7        1.0000    0.97600   0.75000   0.83310   Biso      1.000     O          -0.38722399999999996          
         O8        1.0000    0.21000   0.09170   0.24900   Biso      1.000     O          -0.620042           
         O9        1.0000    0.35190   0.91370   0.13890   Biso      1.000     O          -0.596587           
         O10       1.0000    0.29000   0.90830   0.74900   Biso      1.000     O          -0.620042           
         O11       1.0000    0.85190   0.58630   0.36110   Biso      1.000     O          -0.596587           
         O12       1.0000    0.79000   0.59170   0.75100   Biso      1.000     O          -0.620043           
         O13       1.0000    0.64810   0.41370   0.86110   Biso      1.000     O          -0.596587           
         O14       1.0000    0.21000   0.40830   0.24900   Biso      1.000     O          -0.620043           
         O15       1.0000    0.14810   0.08630   0.63890   Biso      1.000     O          -0.596587           
         O16       1.0000    0.71000   0.09170   0.25100   Biso      1.000     O          -0.620041           
         O17       1.0000    0.64810   0.08630   0.86110   Biso      1.000     O          -0.596587           
         O18       1.0000    0.79000   0.90830   0.75100   Biso      1.000     O          -0.6200439999999999           
         O19       1.0000    0.85190   0.91370   0.36110   Biso      1.000     O          -0.596587           
         O20       1.0000    0.34920   0.25000   0.96350   Biso      1.000     O          -0.6964819999999999           
         O21       1.0000    0.45080   0.25000   0.85010   Biso      1.000     O          -0.45234300000000005          
         O22       1.0000    0.39520   0.25000   0.26150   Biso      1.000     O          -0.554018           
         O23       1.0000    0.52400   0.25000   0.33310   Biso      1.000     O          -0.387233           
         O24       1.0000    0.47600   0.75000   0.66690   Biso      1.000     O          -0.387225           
         O25       1.0000    0.60480   0.75000   0.73850   Biso      1.000     O          -0.554018           
         O26       1.0000    0.54920   0.75000   0.14990   Biso      1.000     O          -0.452342           
         O27       1.0000    0.65080   0.75000   0.03650   Biso      1.000     O          -0.696485           
         O28       1.0000    0.15080   0.75000   0.46350   Biso      1.000     O          -0.696485           
         O29       1.0000    0.04920   0.75000   0.35010   Biso      1.000     O          -0.452345           
         O30       1.0000    0.10480   0.75000   0.76150   Biso      1.000     O          -0.554021           
         O31       1.0000    0.14810   0.41370   0.63890   Biso      1.000     O          -0.596587           
         O32       1.0000    0.71000   0.40830   0.25100   Biso      1.000     O          -0.620041 