
##########################################################################
#               Crystallographic Information Format file
#               Produced by PyCifRW module
#
#  This is a CIF file.  CIF has been adopted by the International
#  Union of Crystallography as the standard for data archiving and
#  transmission.
#
#  For information on this file format, follow the CIF links at
#  http://www.iucr.org
##########################################################################

data_image0

_cell_length_a                          8.061
_cell_length_b                          8.5497
_cell_length_c                          19.74
_cell_angle_alpha                       88.2567
_cell_angle_beta                        86.3
_cell_angle_gamma                       61.8733
_symmetry_space_group_name_H-M          'P 1'
_symmetry_int_tables_number             1
loop_
  _symmetry_equiv_pos_as_xyz
         'x, y, z' 
loop_
  _atom_site_label
  _atom_site_occupancy
  _atom_site_fract_x
  _atom_site_fract_y
  _atom_site_fract_z
  _atom_site_thermal_displace_type
  _atom_site_B_iso_or_equiv
  _atom_site_type_symbol
  _atom_site_charge
         C1        1.0000    0.38340   0.38100   0.19210   Biso      1.000     C          -0.337974           
         C2        1.0000    0.93130   0.28140   0.15530   Biso      1.000     C          -0.332663           
         C3        1.0000    0.90640   0.46820   0.13540   Biso      1.000     C          -0.12431500000000001          
         C4        1.0000    0.77730   0.54860   0.07790   Biso      1.000     C          -0.3393   
         C5        1.0000    0.75220   0.72740   0.05730   Biso      1.000     C          0.716237  
         C6        1.0000    0.49650   0.27440   0.12980   Biso      1.000     C          0.665425  
         C7        1.0000    0.77090   0.72560   0.62980   Biso      1.000     C          0.664629  
         C8        1.0000    0.80450   0.14860   0.39810   Biso      1.000     C          0.714557  
         C9        1.0000    0.78730   0.28140   0.34470   Biso      1.000     C          -0.331129           
         C10       1.0000    0.62540   0.46820   0.36460   Biso      1.000     C          -0.12331099999999999          
         C11       1.0000    0.67410   0.54860   0.42210   Biso      1.000     C          -0.339518           
         C12       1.0000    0.52040   0.72740   0.44270   Biso      1.000     C          0.717338  
         C13       1.0000    0.22910   0.27440   0.37020   Biso      1.000     C          0.664629  
         C14       1.0000    0.23560   0.38100   0.30790   Biso      1.000     C          -0.337943           
         C15       1.0000    0.95310   0.85140   0.89810   Biso      1.000     C          0.714646  
         C16       1.0000    0.06870   0.71860   0.84470   Biso      1.000     C          -0.332662           
         C17       1.0000    0.09360   0.53180   0.86460   Biso      1.000     C          -0.12431600000000001          
         C18       1.0000    0.22270   0.45140   0.92210   Biso      1.000     C          -0.3393   
         C19       1.0000    0.24780   0.27260   0.94270   Biso      1.000     C          0.716237  
         C20       1.0000    0.50350   0.72560   0.87020   Biso      1.000     C          0.665425  
         C21       1.0000    0.61660   0.61900   0.80790   Biso      1.000     C          -0.337974           
         C22       1.0000    0.19550   0.85140   0.60190   Biso      1.000     C          0.714557  
         C23       1.0000    0.21270   0.71860   0.65530   Biso      1.000     C          -0.33112800000000003          
         C24       1.0000    0.37460   0.53180   0.63540   Biso      1.000     C          -0.12330999999999999          
         C25       1.0000    0.04690   0.14860   0.10190   Biso      1.000     C          0.714646  
         C26       1.0000    0.32590   0.45140   0.57790   Biso      1.000     C          -0.339518           
         C27       1.0000    0.47960   0.27260   0.55730   Biso      1.000     C          0.717338  
         C28       1.0000    0.63310   0.73380   0.75000   Biso      1.000     C          -0.13273  
         C29       1.0000    0.36690   0.26620   0.25000   Biso      1.000     C          -0.132731           
         C30       1.0000    0.76440   0.61900   0.69210   Biso      1.000     C          -0.337943           
         H1        1.0000    0.16700   0.53200   0.96200   Biso      1.000     H          0.149293  
         H2        1.0000    0.51200   0.45800   0.37800   Biso      1.000     H          0.106689  
         H3        1.0000    0.60000   0.54800   0.32500   Biso      1.000     H          0.10388   
         H4        1.0000    0.76100   0.24400   0.30100   Biso      1.000     H          0.141894  
         H5        1.0000    0.90700   0.28600   0.33800   Biso      1.000     H          0.130328  
         H6        1.0000    0.31700   0.19000   0.23300   Biso      1.000     H          0.10345399999999999           
         H7        1.0000    0.25500   0.46600   0.18000   Biso      1.000     H          0.134358  
         H8        1.0000    0.83300   0.46800   0.03800   Biso      1.000     H          0.149293  
         H9        1.0000    0.79000   0.55600   0.40900   Biso      1.000     H          0.135694  
         H10       1.0000    0.65400   0.55600   0.09100   Biso      1.000     H          0.135449  
         H11       1.0000    0.03000   0.45800   0.12200   Biso      1.000     H          0.10733800000000002           
         H12       1.0000    0.85200   0.54800   0.17500   Biso      1.000     H          0.10445399999999999           
         H13       1.0000    0.99500   0.24400   0.19900   Biso      1.000     H          0.142767  
         H14       1.0000    0.80700   0.28600   0.16200   Biso      1.000     H          0.13050799999999999           
         H15       1.0000    0.44400   0.44800   0.20900   Biso      1.000     H          0.131459  
         H16       1.0000    0.34600   0.44400   0.90900   Biso      1.000     H          0.135449  
         H17       1.0000    0.69900   0.46800   0.46200   Biso      1.000     H          0.148804  
         H18       1.0000    0.27900   0.46600   0.32000   Biso      1.000     H          0.134519  
         H19       1.0000    0.55600   0.55200   0.79100   Biso      1.000     H          0.131459  
         H20       1.0000    0.74500   0.53400   0.82000   Biso      1.000     H          0.134358  
         H21       1.0000    0.68300   0.81000   0.76700   Biso      1.000     H          0.10345399999999999           
         H22       1.0000    0.09300   0.71400   0.66200   Biso      1.000     H          0.130328  
         H23       1.0000    0.97000   0.54200   0.87800   Biso      1.000     H          0.10733800000000002           
         H24       1.0000    0.40000   0.45200   0.67500   Biso      1.000     H          0.10388   
         H25       1.0000    0.48800   0.54200   0.62200   Biso      1.000     H          0.106688  
         H26       1.0000    0.10800   0.44800   0.29100   Biso      1.000     H          0.132081  
         H27       1.0000    0.21000   0.44400   0.59100   Biso      1.000     H          0.135694  
         H28       1.0000    0.89200   0.55200   0.70900   Biso      1.000     H          0.132081  
         H29       1.0000    0.72100   0.53400   0.68000   Biso      1.000     H          0.134518  
         H30       1.0000    0.50700   0.81000   0.73300   Biso      1.000     H          0.10301700000000001           
         H31       1.0000    0.14800   0.45200   0.82500   Biso      1.000     H          0.10445399999999999           
         H32       1.0000    0.00500   0.75600   0.80100   Biso      1.000     H          0.142767  
         H33       1.0000    0.19300   0.71400   0.83800   Biso      1.000     H          0.13050799999999999           
         H34       1.0000    0.49300   0.19000   0.26700   Biso      1.000     H          0.10301600000000001           
         H35       1.0000    0.30100   0.53200   0.53800   Biso      1.000     H          0.148804  
         H36       1.0000    0.23900   0.75600   0.69900   Biso      1.000     H          0.14189300000000002           
         Nd1       1.0000    0.70784   0.07546   0.01188   Biso      1.000     Nd          2.077707  
         Nd2       1.0000    0.78330   0.92454   0.51188   Biso      1.000     Nd          2.078025  
         Nd3       1.0000    0.29216   0.92454   0.98812   Biso      1.000     Nd          2.077706  
         Nd4       1.0000    0.21670   0.07546   0.48812   Biso      1.000     Nd          2.078025  
         O1        1.0000    0.65000   0.23280   0.56070   Biso      1.000     O          -0.61411  
         O2        1.0000    0.43460   0.16040   0.53400   Biso      1.000     O          -0.7631439999999999           
         O3        1.0000    0.68250   0.09840   0.40580   Biso      1.000     O          -0.616105           
         O4        1.0000    0.05820   0.91020   0.56210   Biso      1.000     O          -0.792767           
         O5        1.0000    0.50970   0.64520   0.92600   Biso      1.000     O          -0.700631           
         O6        1.0000    0.40090   0.88960   0.86720   Biso      1.000     O          -0.6269600000000001           
         O7        1.0000    0.11720   0.23280   0.93930   Biso      1.000     O          -0.6140369999999999           
         O8        1.0000    0.40500   0.16040   0.96600   Biso      1.000     O          -0.762372           
         O9        1.0000    0.21910   0.09840   0.09420   Biso      1.000     O          -0.61598  
         O10       1.0000    0.03160   0.91020   0.93790   Biso      1.000     O          -0.792442           
         O11       1.0000    0.15490   0.35480   0.42600   Biso      1.000     O          -0.700331           
         O12       1.0000    0.29050   0.11040   0.36720   Biso      1.000     O          -0.626786           
         O13       1.0000    0.35000   0.76720   0.43930   Biso      1.000     O          -0.61411  
         O14       1.0000    0.56540   0.83960   0.46600   Biso      1.000     O          -0.7631439999999999           
         O15       1.0000    0.31750   0.90160   0.59420   Biso      1.000     O          -0.616105           
         O16       1.0000    0.94180   0.08980   0.43790   Biso      1.000     O          -0.792767           
         O17       1.0000    0.49030   0.35480   0.07400   Biso      1.000     O          -0.700631           
         O18       1.0000    0.59910   0.11040   0.13280   Biso      1.000     O          -0.626961           
         O19       1.0000    0.88280   0.76720   0.06070   Biso      1.000     O          -0.6140369999999999           
         O20       1.0000    0.59500   0.83960   0.03400   Biso      1.000     O          -0.762372           
         O21       1.0000    0.78090   0.90160   0.90580   Biso      1.000     O          -0.61598  
         O22       1.0000    0.96840   0.08980   0.06210   Biso      1.000     O          -0.792442           
         O23       1.0000    0.70950   0.88960   0.63280   Biso      1.000     O          -0.626786           
         O24       1.0000    0.84510   0.64520   0.57400   Biso      1.000     O          -0.700331 