
##########################################################################
#               Crystallographic Information Format file
#               Produced by PyCifRW module
#
#  This is a CIF file.  CIF has been adopted by the International
#  Union of Crystallography as the standard for data archiving and
#  transmission.
#
#  For information on this file format, follow the CIF links at
#  http://www.iucr.org
##########################################################################

data_image0

_cell_length_a                          10.918
_cell_length_b                          17.1253
_cell_length_c                          17.2092
_cell_angle_alpha                       90
_cell_angle_beta                        90
_cell_angle_gamma                       90
_symmetry_space_group_name_H-M          'P 1'
_symmetry_int_tables_number             1
loop_
  _symmetry_equiv_pos_as_xyz
         'x, y, z' 
loop_
  _atom_site_label
  _atom_site_occupancy
  _atom_site_fract_x
  _atom_site_fract_y
  _atom_site_fract_z
  _atom_site_thermal_displace_type
  _atom_site_B_iso_or_equiv
  _atom_site_type_symbol
  _atom_site_charge
         C1        1.0000    0.62510   0.84062   0.18548   Biso      1.000     C          -0.019004           
         C2        1.0000    0.51010   0.94526   0.24366   Biso      1.000     C          -0.119776           
         C3        1.0000    0.52150   0.88780   0.18621   Biso      1.000     C          -0.050005           
         C4        1.0000    0.71720   0.85239   0.24163   Biso      1.000     C          -0.118469           
         C5        1.0000    0.70240   0.90920   0.29822   Biso      1.000     C          -0.08477  
         C6        1.0000    0.59880   0.95589   0.29962   Biso      1.000     C          -0.05326  
         C7        1.0000    0.90990   0.63192   0.15547   Biso      1.000     C          0.60828   
         C8        1.0000    0.14640   0.71704   0.13741   Biso      1.000     C          0.635238  
         C9        1.0000    0.09130   0.47891   0.37316   Biso      1.000     C          0.621671  
         C10       1.0000    0.00690   0.55935   0.26457   Biso      1.000     C          -0.108108           
         C11       1.0000    0.01820   0.61552   0.20692   Biso      1.000     C          -0.057662           
         C12       1.0000    0.13150   0.65317   0.19598   Biso      1.000     C          -0.029238999999999998         
         C13       1.0000    0.22990   0.63308   0.24299   Biso      1.000     C          -0.11358299999999999          
         C14       1.0000    0.58590   0.01945   0.35918   Biso      1.000     C          0.632278  
         C15       1.0000    0.21800   0.57826   0.30100   Biso      1.000     C          -0.07785  
         C16       1.0000    0.92290   0.62070   0.87420   Biso      1.000     C          0.598014  
         C17       1.0000    0.15110   0.72382   0.87146   Biso      1.000     C          0.648349  
         C18       1.0000    0.08590   0.48055   0.64082   Biso      1.000     C          0.632278  
         C19       1.0000    0.01010   0.55474   0.75634   Biso      1.000     C          -0.119775           
         C20       1.0000    0.02150   0.61220   0.81379   Biso      1.000     C          -0.050005           
         C21       1.0000    0.21720   0.64761   0.75837   Biso      1.000     C          -0.118469           
         C22       1.0000    0.20240   0.59080   0.70178   Biso      1.000     C          -0.08477  
         C23       1.0000    0.09880   0.54411   0.70038   Biso      1.000     C          -0.05326  
         C24       1.0000    0.59010   0.36808   0.65547   Biso      1.000     C          0.60828   
         C25       1.0000    0.35360   0.28296   0.63741   Biso      1.000     C          0.635238  
         C26       1.0000    0.40870   0.52109   0.87316   Biso      1.000     C          0.621671  
         C27       1.0000    0.49310   0.44065   0.76457   Biso      1.000     C          -0.108108           
         C28       1.0000    0.10480   0.54018   0.31159   Biso      1.000     C          -0.02955  
         C29       1.0000    0.48180   0.38448   0.70692   Biso      1.000     C          -0.057662           
         C30       1.0000    0.65110   0.77618   0.12854   Biso      1.000     C          0.648349  
         C31       1.0000    0.60480   0.95982   0.68841   Biso      1.000     C          -0.029552999999999996         
         C32       1.0000    0.09010   0.13192   0.34453   Biso      1.000     C          0.60828   
         C33       1.0000    0.85360   0.21704   0.36259   Biso      1.000     C          0.635238  
         C34       1.0000    0.90870   0.97891   0.12684   Biso      1.000     C          0.621671  
         C35       1.0000    0.99310   0.05935   0.23543   Biso      1.000     C          -0.108108           
         C36       1.0000    0.98180   0.11552   0.29308   Biso      1.000     C          -0.057662           
         C37       1.0000    0.86850   0.15317   0.30402   Biso      1.000     C          -0.029238999999999998         
         C38       1.0000    0.77010   0.13308   0.25701   Biso      1.000     C          -0.11358299999999999          
         C39       1.0000    0.78200   0.07826   0.19900   Biso      1.000     C          -0.07785  
         C40       1.0000    0.89520   0.04018   0.18841   Biso      1.000     C          -0.02955  
         C41       1.0000    0.07710   0.12070   0.62580   Biso      1.000     C          0.598014  
         C42       1.0000    0.84890   0.22382   0.62854   Biso      1.000     C          0.648349  
         C43       1.0000    0.91410   0.98055   0.85918   Biso      1.000     C          0.632278  
         C44       1.0000    0.42290   0.87930   0.12580   Biso      1.000     C          0.598014  
         C45       1.0000    0.98990   0.05474   0.74366   Biso      1.000     C          -0.119775           
         C46       1.0000    0.87490   0.15938   0.68548   Biso      1.000     C          -0.019004           
         C47       1.0000    0.78280   0.14761   0.74163   Biso      1.000     C          -0.118469           
         C48       1.0000    0.79760   0.09080   0.79822   Biso      1.000     C          -0.08477  
         C49       1.0000    0.90120   0.04411   0.79962   Biso      1.000     C          -0.05326  
         C50       1.0000    0.40990   0.86808   0.84453   Biso      1.000     C          0.60828   
         C51       1.0000    0.64640   0.78296   0.86259   Biso      1.000     C          0.635238  
         C52       1.0000    0.59130   0.02109   0.62684   Biso      1.000     C          0.621671  
         C53       1.0000    0.50690   0.94065   0.73543   Biso      1.000     C          -0.10810399999999999          
         C54       1.0000    0.51820   0.88448   0.79308   Biso      1.000     C          -0.057663           
         C55       1.0000    0.63150   0.84683   0.80402   Biso      1.000     C          -0.029238999999999998         
         C56       1.0000    0.72990   0.86692   0.75701   Biso      1.000     C          -0.11358299999999999          
         C57       1.0000    0.71800   0.92174   0.69900   Biso      1.000     C          -0.07785  
         C58       1.0000    0.97850   0.11220   0.68621   Biso      1.000     C          -0.050005           
         C59       1.0000    0.36850   0.34683   0.69598   Biso      1.000     C          -0.029238999999999998         
         C60       1.0000    0.12510   0.65938   0.81452   Biso      1.000     C          -0.019004           
         C61       1.0000    0.28200   0.42174   0.80100   Biso      1.000     C          -0.07785  
         C62       1.0000    0.39520   0.45982   0.81159   Biso      1.000     C          -0.029549000000000002         
         C63       1.0000    0.57710   0.37930   0.37420   Biso      1.000     C          0.598014  
         C64       1.0000    0.34890   0.27618   0.37146   Biso      1.000     C          0.648349  
         C65       1.0000    0.41410   0.51945   0.14082   Biso      1.000     C          0.632278  
         C66       1.0000    0.48990   0.44526   0.25634   Biso      1.000     C          -0.119775           
         C67       1.0000    0.47850   0.38780   0.31379   Biso      1.000     C          -0.050005           
         C68       1.0000    0.37490   0.34062   0.31452   Biso      1.000     C          -0.019004           
         C69       1.0000    0.28280   0.35239   0.25837   Biso      1.000     C          -0.118469           
         C70       1.0000    0.27010   0.36692   0.74299   Biso      1.000     C          -0.11358299999999999          
         C71       1.0000    0.29760   0.40920   0.20178   Biso      1.000     C          -0.08477  
         C72       1.0000    0.40120   0.45589   0.20038   Biso      1.000     C          -0.05326  
         H1        1.0000    0.26280   0.58390   0.66430   Biso      1.000     H          0.11986500000000001           
         H2        1.0000    0.28790   0.67790   0.75930   Biso      1.000     H          0.127831  
         H3        1.0000    0.30530   0.65710   0.23510   Biso      1.000     H          0.13053800000000002           
         H4        1.0000    0.28420   0.56640   0.33290   Biso      1.000     H          0.12556199999999998           
         H5        1.0000    0.24080   0.91890   0.02370   Biso      1.000     H          0.398405  
         H6        1.0000    0.94090   0.52300   0.75590   Biso      1.000     H          0.126414  
         H7        1.0000    0.46600   0.68060   0.05830   Biso      1.000     H          0.383943  
         H8        1.0000    0.23720   0.41610   0.16430   Biso      1.000     H          0.11986500000000001           
         H9        1.0000    0.19470   0.34290   0.73510   Biso      1.000     H          0.13053800000000002           
         H10       1.0000    0.55910   0.47700   0.25590   Biso      1.000     H          0.126414  
         H11       1.0000    0.21210   0.32210   0.25930   Biso      1.000     H          0.127831  
         H12       1.0000    0.93230   0.53420   0.27160   Biso      1.000     H          0.137628  
         H13       1.0000    0.25920   0.08110   0.52370   Biso      1.000     H          0.398405  
         H14       1.0000    0.03400   0.31940   0.55830   Biso      1.000     H          0.383943  
         H15       1.0000    0.56770   0.46580   0.77160   Biso      1.000     H          0.137628  
         H16       1.0000    0.96600   0.81940   0.94170   Biso      1.000     H          0.383943  
         H17       1.0000    0.21580   0.43360   0.83290   Biso      1.000     H          0.12556199999999998           
         H18       1.0000    0.74080   0.58110   0.97630   Biso      1.000     H          0.398405  
         H19       1.0000    0.06770   0.03420   0.22840   Biso      1.000     H          0.137628  
         H20       1.0000    0.69470   0.15710   0.26490   Biso      1.000     H          0.13053800000000002           
         H21       1.0000    0.71580   0.06640   0.16710   Biso      1.000     H          0.12556199999999998           
         H22       1.0000    0.05910   0.02300   0.74410   Biso      1.000     H          0.126414  
         H23       1.0000    0.73720   0.08390   0.83570   Biso      1.000     H          0.11986500000000001           
         H24       1.0000    0.75920   0.41890   0.47630   Biso      1.000     H          0.398405  
         H25       1.0000    0.71210   0.17790   0.74070   Biso      1.000     H          0.127831  
         H26       1.0000    0.43230   0.96580   0.72840   Biso      1.000     H          0.137628  
         H27       1.0000    0.80530   0.84290   0.76490   Biso      1.000     H          0.13053800000000002           
         H28       1.0000    0.78420   0.93360   0.66710   Biso      1.000     H          0.12556199999999998           
         H29       1.0000    0.44090   0.97700   0.24410   Biso      1.000     H          0.126414  
         H30       1.0000    0.78790   0.82210   0.24070   Biso      1.000     H          0.12783   
         H31       1.0000    0.76280   0.91610   0.33570   Biso      1.000     H          0.11986500000000001           
         H32       1.0000    0.53400   0.18060   0.44170   Biso      1.000     H          0.383943  
         O1        1.0000    0.66750   0.02335   0.41039   Biso      1.000     O          -0.565576           
         O2        1.0000    0.48989   0.05556   0.62462   Biso      1.000     O          -0.544816           
         O3        1.0000    0.43849   0.82824   0.07564   Biso      1.000     O          -0.580308           
         O4        1.0000    0.33340   0.92400   0.12690   Biso      1.000     O          -0.578611           
         O5        1.0000    0.72811   0.79089   0.07606   Biso      1.000     O          -0.5866180000000001           
         O6        1.0000    0.60200   0.71106   0.14034   Biso      1.000     O          -0.5515909999999999           
         O7        1.0000    0.49690   0.06623   0.35312   Biso      1.000     O          -0.5786439999999999           
         O8        1.0000    0.18073   0.46528   0.41666   Biso      1.000     O          -0.5820390000000001           
         O9        1.0000    0.42882   0.68024   0.00648   Biso      1.000     O          -0.865516           
         O10       1.0000    0.92785   0.66260   0.09055   Biso      1.000     O          -0.568728           
         O11       1.0000    0.80582   0.61352   0.18200   Biso      1.000     O          -0.5432899999999999           
         O12       1.0000    0.21978   0.70777   0.08249   Biso      1.000     O          -0.5785170000000001           
         O13       1.0000    0.08637   0.77931   0.15112   Biso      1.000     O          -0.529475           
         O14       1.0000    0.68073   0.03472   0.58334   Biso      1.000     O          -0.5820390000000001           
         O15       1.0000    0.19837   0.87410   0.00059   Biso      1.000     O          -0.8758809999999999           
         O16       1.0000    0.58637   0.72069   0.84888   Biso      1.000     O          -0.529475           
         O17       1.0000    0.06151   0.17176   0.57564   Biso      1.000     O          -0.580308           
         O18       1.0000    0.07215   0.16260   0.40945   Biso      1.000     O          -0.568728           
         O19       1.0000    0.98989   0.44444   0.37538   Biso      1.000     O          -0.544816           
         O20       1.0000    0.42785   0.83740   0.90945   Biso      1.000     O          -0.568728           
         O21       1.0000    0.92882   0.81976   0.99352   Biso      1.000     O          -0.8655149999999999           
         O22       1.0000    0.69837   0.62590   0.99941   Biso      1.000     O          -0.8758809999999999           
         O23       1.0000    0.00310   0.93377   0.85312   Biso      1.000     O          -0.5786439999999999           
         O24       1.0000    0.83250   0.97665   0.91039   Biso      1.000     O          -0.565576           
         O25       1.0000    0.89800   0.28894   0.64034   Biso      1.000     O          -0.5515909999999999           
         O26       1.0000    0.77189   0.20911   0.57606   Biso      1.000     O          -0.586617           
         O27       1.0000    0.16660   0.07600   0.62690   Biso      1.000     O          -0.578611           
         O28       1.0000    0.30582   0.88648   0.81800   Biso      1.000     O          -0.5432899999999999           
         O29       1.0000    0.01011   0.94444   0.12462   Biso      1.000     O          -0.544816           
         O30       1.0000    0.81927   0.96528   0.08334   Biso      1.000     O          -0.5820390000000001           
         O31       1.0000    0.91363   0.27931   0.34888   Biso      1.000     O          -0.529475           
         O32       1.0000    0.78022   0.20777   0.41751   Biso      1.000     O          -0.5785170000000001           
         O33       1.0000    0.19418   0.11352   0.31800   Biso      1.000     O          -0.5432899999999999           
         O34       1.0000    0.71978   0.79223   0.91751   Biso      1.000     O          -0.5785170000000001           
         O35       1.0000    0.93849   0.67176   0.92436   Biso      1.000     O          -0.580308           
         O36       1.0000    0.80163   0.37410   0.49941   Biso      1.000     O          -0.8758809999999999           
         O37       1.0000    0.22811   0.70911   0.92394   Biso      1.000     O          -0.5866180000000001           
         O38       1.0000    0.57118   0.18024   0.49352   Biso      1.000     O          -0.865516           
         O39       1.0000    0.83340   0.57600   0.87310   Biso      1.000     O          -0.578611           
         O40       1.0000    0.33250   0.52335   0.08961   Biso      1.000     O          -0.565576           
         O41       1.0000    0.39800   0.21106   0.35966   Biso      1.000     O          -0.5515909999999999           
         O42       1.0000    0.27189   0.29089   0.42394   Biso      1.000     O          -0.586617           
         O43       1.0000    0.66660   0.42400   0.37310   Biso      1.000     O          -0.578611           
         O44       1.0000    0.56151   0.32824   0.42436   Biso      1.000     O          -0.580308           
         O45       1.0000    0.51011   0.55556   0.87538   Biso      1.000     O          -0.544816           
         O46       1.0000    0.31927   0.53472   0.91666   Biso      1.000     O          -0.5820390000000001           
         O47       1.0000    0.50310   0.56623   0.14688   Biso      1.000     O          -0.5786439999999999           
         O48       1.0000    0.28022   0.29223   0.58249   Biso      1.000     O          -0.578516           
         O49       1.0000    0.69418   0.38648   0.68200   Biso      1.000     O          -0.5432899999999999           
         O50       1.0000    0.57215   0.33740   0.59055   Biso      1.000     O          -0.568728           
         O51       1.0000    0.07118   0.31976   0.50648   Biso      1.000     O          -0.8655149999999999           
         O52       1.0000    0.30163   0.12590   0.50059   Biso      1.000     O          -0.8758809999999999           
         O53       1.0000    0.99690   0.43377   0.64688   Biso      1.000     O          -0.5786439999999999           
         O54       1.0000    0.16750   0.47665   0.58961   Biso      1.000     O          -0.565576           
         O55       1.0000    0.10200   0.78894   0.85966   Biso      1.000     O          -0.5515909999999999           
         O56       1.0000    0.41363   0.22069   0.65112   Biso      1.000     O          -0.529475           
         Zn1       1.0000    0.55529   0.64785   0.93331   Biso      1.000     Zn          1.0118770000000001  
         Zn2       1.0000    0.66522   0.59836   0.11031   Biso      1.000     Zn          0.984282  
         Zn3       1.0000    0.28626   0.60415   0.00973   Biso      1.000     Zn          1.064003  
         Zn4       1.0000    0.32362   0.78366   0.99598   Biso      1.000     Zn          1.036708  
         Zn5       1.0000    0.94471   0.35215   0.43331   Biso      1.000     Zn          1.011876  
         Zn6       1.0000    0.83478   0.40164   0.61031   Biso      1.000     Zn          0.984281  
         Zn7       1.0000    0.21374   0.39585   0.50973   Biso      1.000     Zn          1.0640020000000001  
         Zn8       1.0000    0.71374   0.10415   0.49027   Biso      1.000     Zn          1.0640020000000001  
         Zn9       1.0000    0.44471   0.14785   0.56669   Biso      1.000     Zn          1.0118770000000001  
         Zn10      1.0000    0.33478   0.09836   0.38969   Biso      1.000     Zn          0.984281  
         Zn11      1.0000    0.67638   0.28366   0.50402   Biso      1.000     Zn          1.036707  
         Zn12      1.0000    0.05529   0.85215   0.06669   Biso      1.000     Zn          1.0118770000000001  
         Zn13      1.0000    0.16522   0.90164   0.88969   Biso      1.000     Zn          0.984281  
         Zn14      1.0000    0.78626   0.89585   0.99027   Biso      1.000     Zn          1.064003  
         Zn15      1.0000    0.82362   0.71634   0.00402   Biso      1.000     Zn          1.036708  
         Zn16      1.0000    0.17638   0.21634   0.49598   Biso      1.000     Zn          1.036706 