
##########################################################################
#               Crystallographic Information Format file
#               Produced by PyCifRW module
#
#  This is a CIF file.  CIF has been adopted by the International
#  Union of Crystallography as the standard for data archiving and
#  transmission.
#
#  For information on this file format, follow the CIF links at
#  http://www.iucr.org
##########################################################################

data_image0

_cell_length_a                          15.351
_cell_length_b                          15.351
_cell_length_c                          15.812
_cell_angle_alpha                       90
_cell_angle_beta                        90
_cell_angle_gamma                       120
_symmetry_space_group_name_H-M          'P 1'
_symmetry_int_tables_number             1
loop_
  _symmetry_equiv_pos_as_xyz
         'x, y, z' 
loop_
  _atom_site_label
  _atom_site_occupancy
  _atom_site_fract_x
  _atom_site_fract_y
  _atom_site_fract_z
  _atom_site_thermal_displace_type
  _atom_site_B_iso_or_equiv
  _atom_site_type_symbol
  _atom_site_charge
         C1        1.0000    0.35265   0.49385   0.13999   Biso      1.000     C          0.589902  
         C2        1.0000    0.21513   0.32513   0.19464   Biso      1.000     C          -0.138256           
         C3        1.0000    0.26544   0.42750   0.19739   Biso      1.000     C          0.14573699999999998           
         C4        1.0000    0.67487   0.89000   0.19464   Biso      1.000     C          -0.138216           
         C5        1.0000    0.57250   0.83794   0.19739   Biso      1.000     C          0.145656  
         C6        1.0000    0.50615   0.85880   0.13999   Biso      1.000     C          0.5899369999999999  
         C7        1.0000    0.89000   0.21513   0.19464   Biso      1.000     C          -0.138243           
         C8        1.0000    0.83794   0.26544   0.19739   Biso      1.000     C          0.145705  
         C9        1.0000    0.85880   0.35265   0.13999   Biso      1.000     C          0.589925  
         C10       1.0000    0.78487   0.67487   0.19464   Biso      1.000     C          -0.138256           
         C11       1.0000    0.73456   0.57250   0.19739   Biso      1.000     C          0.14573699999999998           
         C12       1.0000    0.64735   0.50615   0.13999   Biso      1.000     C          0.589902  
         C13       1.0000    0.32513   0.11000   0.19464   Biso      1.000     C          -0.138216           
         C14       1.0000    0.42750   0.16206   0.19739   Biso      1.000     C          0.145656  
         C15       1.0000    0.14120   0.64735   0.13999   Biso      1.000     C          0.589925  
         C16       1.0000    0.49385   0.14120   0.13999   Biso      1.000     C          0.5899369999999999  
         C17       1.0000    0.50615   0.64735   0.63999   Biso      1.000     C          0.589925  
         C18       1.0000    0.11000   0.32513   0.69464   Biso      1.000     C          -0.138256           
         C19       1.0000    0.16206   0.42750   0.69739   Biso      1.000     C          0.14573699999999998           
         C20       1.0000    0.14120   0.49385   0.63999   Biso      1.000     C          0.589902  
         C21       1.0000    0.21513   0.89000   0.69464   Biso      1.000     C          -0.138216           
         C22       1.0000    0.26544   0.83794   0.69739   Biso      1.000     C          0.145656  
         C23       1.0000    0.35265   0.85880   0.63999   Biso      1.000     C          0.589938  
         C24       1.0000    0.32513   0.21513   0.69464   Biso      1.000     C          -0.138243           
         C25       1.0000    0.42750   0.26544   0.69739   Biso      1.000     C          0.145704  
         C26       1.0000    0.49385   0.35265   0.63999   Biso      1.000     C          0.589924  
         C27       1.0000    0.89000   0.67487   0.69464   Biso      1.000     C          -0.138256           
         C28       1.0000    0.83794   0.57250   0.69739   Biso      1.000     C          0.14573699999999998           
         C29       1.0000    0.85880   0.50615   0.63999   Biso      1.000     C          0.589902  
         C30       1.0000    0.57250   0.73456   0.69739   Biso      1.000     C          0.145701  
         C31       1.0000    0.16206   0.73456   0.19739   Biso      1.000     C          0.145702  
         C32       1.0000    0.11000   0.78487   0.19464   Biso      1.000     C          -0.138239           
         C33       1.0000    0.35265   0.85880   0.36001   Biso      1.000     C          0.589938  
         C34       1.0000    0.13622   0.86378   0.25000   Biso      1.000     C          -0.045406999999999996         
         C35       1.0000    0.13622   0.27244   0.25000   Biso      1.000     C          -0.045377           
         C36       1.0000    0.72756   0.86378   0.25000   Biso      1.000     C          -0.045406           
         C37       1.0000    0.86378   0.13622   0.25000   Biso      1.000     C          -0.045406999999999996         
         C38       1.0000    0.86378   0.72756   0.25000   Biso      1.000     C          -0.045377           
         C39       1.0000    0.27244   0.13622   0.25000   Biso      1.000     C          -0.045406           
         C40       1.0000    0.86378   0.13622   0.75000   Biso      1.000     C          -0.045409           
         C41       1.0000    0.86378   0.72756   0.75000   Biso      1.000     C          -0.045377999999999995         
         C42       1.0000    0.27244   0.13622   0.75000   Biso      1.000     C          -0.045406999999999996         
         C43       1.0000    0.13622   0.86378   0.75000   Biso      1.000     C          -0.045408           
         C44       1.0000    0.13622   0.27244   0.75000   Biso      1.000     C          -0.045377999999999995         
         C45       1.0000    0.72756   0.86378   0.75000   Biso      1.000     C          -0.04541  
         C46       1.0000    0.32513   0.21513   0.30536   Biso      1.000     C          -0.138241           
         C47       1.0000    0.42750   0.26544   0.30261   Biso      1.000     C          0.145705  
         C48       1.0000    0.49385   0.35265   0.36001   Biso      1.000     C          0.589924  
         C49       1.0000    0.89000   0.67487   0.30536   Biso      1.000     C          -0.138254           
         C50       1.0000    0.83794   0.57250   0.30261   Biso      1.000     C          0.14573699999999998           
         C51       1.0000    0.85880   0.50615   0.36001   Biso      1.000     C          0.589901  
         C52       1.0000    0.78487   0.11000   0.30536   Biso      1.000     C          -0.138214           
         C53       1.0000    0.73456   0.16206   0.30261   Biso      1.000     C          0.145656  
         C54       1.0000    0.64735   0.14120   0.36001   Biso      1.000     C          0.589938  
         C55       1.0000    0.67487   0.78487   0.30536   Biso      1.000     C          -0.138241           
         C56       1.0000    0.57250   0.73456   0.30261   Biso      1.000     C          0.145705  
         C57       1.0000    0.50615   0.64735   0.36001   Biso      1.000     C          0.589924  
         C58       1.0000    0.11000   0.32513   0.30536   Biso      1.000     C          -0.138254           
         C59       1.0000    0.16206   0.42750   0.30261   Biso      1.000     C          0.14573699999999998           
         C60       1.0000    0.14120   0.49385   0.36001   Biso      1.000     C          0.589901  
         C61       1.0000    0.21513   0.89000   0.30536   Biso      1.000     C          -0.138214           
         C62       1.0000    0.26544   0.83794   0.30261   Biso      1.000     C          0.145656  
         C63       1.0000    0.78487   0.11000   0.69464   Biso      1.000     C          -0.138214           
         C64       1.0000    0.73456   0.16206   0.69739   Biso      1.000     C          0.145656  
         C65       1.0000    0.67487   0.78487   0.69464   Biso      1.000     C          -0.138237           
         C66       1.0000    0.89000   0.21513   0.80536   Biso      1.000     C          -0.138241           
         C67       1.0000    0.64735   0.14120   0.63999   Biso      1.000     C          0.589938  
         C68       1.0000    0.57250   0.83794   0.80261   Biso      1.000     C          0.145652  
         C69       1.0000    0.67487   0.89000   0.80536   Biso      1.000     C          -0.13821  
         C70       1.0000    0.35265   0.49385   0.86001   Biso      1.000     C          0.589902  
         C71       1.0000    0.26544   0.42750   0.80261   Biso      1.000     C          0.145733  
         C72       1.0000    0.21513   0.32513   0.80536   Biso      1.000     C          -0.138251           
         C73       1.0000    0.14120   0.64735   0.86001   Biso      1.000     C          0.589925  
         C74       1.0000    0.16206   0.73456   0.80261   Biso      1.000     C          0.145702  
         C75       1.0000    0.50615   0.85880   0.86001   Biso      1.000     C          0.5899369999999999  
         C76       1.0000    0.49385   0.14120   0.86001   Biso      1.000     C          0.5899369999999999  
         C77       1.0000    0.42750   0.16206   0.80261   Biso      1.000     C          0.145652  
         C78       1.0000    0.32513   0.11000   0.80536   Biso      1.000     C          -0.138211           
         C79       1.0000    0.64735   0.50615   0.86001   Biso      1.000     C          0.589902  
         C80       1.0000    0.73456   0.57250   0.80261   Biso      1.000     C          0.145733  
         C81       1.0000    0.78487   0.67487   0.80536   Biso      1.000     C          -0.138251           
         C82       1.0000    0.85880   0.35265   0.86001   Biso      1.000     C          0.589925  
         C83       1.0000    0.83794   0.26544   0.80261   Biso      1.000     C          0.145705  
         C84       1.0000    0.11000   0.78487   0.80536   Biso      1.000     C          -0.138237           
         H1        1.0000    0.05780   0.29130   0.65620   Biso      1.000     H          0.127754  
         H2        1.0000    0.70870   0.76650   0.65620   Biso      1.000     H          0.127745  
         H3        1.0000    0.70870   0.94220   0.15620   Biso      1.000     H          0.127743  
         H4        1.0000    0.76650   0.70870   0.15620   Biso      1.000     H          0.127753  
         H5        1.0000    0.94220   0.23350   0.15620   Biso      1.000     H          0.127744  
         H6        1.0000    0.23350   0.29130   0.15620   Biso      1.000     H          0.127754  
         H7        1.0000    0.29130   0.05780   0.15620   Biso      1.000     H          0.127743  
         H8        1.0000    0.23350   0.94220   0.65620   Biso      1.000     H          0.127742  
         H9        1.0000    0.94220   0.23350   0.84380   Biso      1.000     H          0.127744  
         H10       1.0000    0.76650   0.05780   0.65620   Biso      1.000     H          0.127742  
         H11       1.0000    0.76650   0.70870   0.84380   Biso      1.000     H          0.127753  
         H12       1.0000    0.29130   0.05780   0.84380   Biso      1.000     H          0.127743  
         H13       1.0000    0.05780   0.76650   0.84380   Biso      1.000     H          0.127744  
         H14       1.0000    0.23350   0.29130   0.84380   Biso      1.000     H          0.127753  
         H15       1.0000    0.05780   0.76650   0.15620   Biso      1.000     H          0.127744  
         H16       1.0000    0.70870   0.94220   0.84380   Biso      1.000     H          0.127743  
         H17       1.0000    0.29130   0.23350   0.65620   Biso      1.000     H          0.127745  
         H18       1.0000    0.23350   0.94220   0.34380   Biso      1.000     H          0.127742  
         H19       1.0000    0.94220   0.70870   0.65620   Biso      1.000     H          0.127754  
         H20       1.0000    0.70870   0.76650   0.34380   Biso      1.000     H          0.127745  
         H21       1.0000    0.10125   0.89875   0.25000   Biso      1.000     H          0.100985  
         H22       1.0000    0.05780   0.29130   0.34380   Biso      1.000     H          0.127753  
         H23       1.0000    0.79750   0.89875   0.25000   Biso      1.000     H          0.100985  
         H24       1.0000    0.89875   0.10125   0.25000   Biso      1.000     H          0.100985  
         H25       1.0000    0.89875   0.79750   0.25000   Biso      1.000     H          0.100988  
         H26       1.0000    0.20250   0.10125   0.25000   Biso      1.000     H          0.100985  
         H27       1.0000    0.89875   0.10125   0.75000   Biso      1.000     H          0.100986  
         H28       1.0000    0.89875   0.79750   0.75000   Biso      1.000     H          0.100989  
         H29       1.0000    0.10125   0.20250   0.25000   Biso      1.000     H          0.100988  
         H30       1.0000    0.10125   0.89875   0.75000   Biso      1.000     H          0.100986  
         H31       1.0000    0.10125   0.20250   0.75000   Biso      1.000     H          0.100989  
         H32       1.0000    0.79750   0.89875   0.75000   Biso      1.000     H          0.100986  
         H33       1.0000    0.29130   0.23350   0.34380   Biso      1.000     H          0.127745  
         H34       1.0000    0.94220   0.70870   0.34380   Biso      1.000     H          0.127753  
         H35       1.0000    0.76650   0.05780   0.34380   Biso      1.000     H          0.127742  
         H36       1.0000    0.20250   0.10125   0.75000   Biso      1.000     H          0.100986  
         Mn1       1.0000    0.50000   0.00000   0.00000   Biso      1.000     Mn          1.1589639999999999  
         Mn2       1.0000    0.50000   0.50000   0.00000   Biso      1.000     Mn          1.158967  
         Mn3       1.0000    0.00000   0.50000   0.00000   Biso      1.000     Mn          1.1589639999999999  
         Mn4       1.0000    0.50000   0.00000   0.50000   Biso      1.000     Mn          1.158962  
         Mn5       1.0000    0.50000   0.50000   0.50000   Biso      1.000     Mn          1.1589639999999999  
         Mn6       1.0000    0.00000   0.50000   0.50000   Biso      1.000     Mn          1.15897   
         N1        1.0000    0.23962   0.47924   0.25000   Biso      1.000     N          -0.341004           
         N2        1.0000    0.23962   0.76039   0.25000   Biso      1.000     N          -0.340882           
         N3        1.0000    0.52077   0.76039   0.25000   Biso      1.000     N          -0.340883           
         N4        1.0000    0.76038   0.23961   0.25000   Biso      1.000     N          -0.340883           
         N5        1.0000    0.76038   0.52076   0.25000   Biso      1.000     N          -0.341004           
         N6        1.0000    0.47923   0.23961   0.25000   Biso      1.000     N          -0.340883           
         N7        1.0000    0.76038   0.23961   0.75000   Biso      1.000     N          -0.340883           
         N8        1.0000    0.76038   0.52076   0.75000   Biso      1.000     N          -0.341004           
         N9        1.0000    0.23962   0.76039   0.75000   Biso      1.000     N          -0.340882           
         N10       1.0000    0.23962   0.47924   0.75000   Biso      1.000     N          -0.341004           
         N11       1.0000    0.52077   0.76039   0.75000   Biso      1.000     N          -0.340882           
         N12       1.0000    0.47923   0.23961   0.75000   Biso      1.000     N          -0.340883           
         O1        1.0000    0.41280   0.61242   0.64458   Biso      1.000     O          -0.60444  
         O2        1.0000    0.44922   0.06500   0.09331   Biso      1.000     O          -0.575756           
         O3        1.0000    0.58720   0.19962   0.14458   Biso      1.000     O          -0.604442           
         O4        1.0000    0.61578   0.55078   0.09331   Biso      1.000     O          -0.575751           
         O5        1.0000    0.61242   0.41280   0.14458   Biso      1.000     O          -0.6044229999999999           
         O6        1.0000    0.93500   0.38422   0.09331   Biso      1.000     O          -0.575753           
         O7        1.0000    0.80038   0.38758   0.14458   Biso      1.000     O          -0.60444  
         O8        1.0000    0.55078   0.93500   0.09331   Biso      1.000     O          -0.575756           
         O9        1.0000    0.41280   0.80038   0.14458   Biso      1.000     O          -0.604442           
         O10       1.0000    0.38422   0.44922   0.09331   Biso      1.000     O          -0.575751           
         O11       1.0000    0.38758   0.58720   0.14458   Biso      1.000     O          -0.6044229999999999           
         O12       1.0000    0.19962   0.61242   0.14458   Biso      1.000     O          -0.60444  
         O13       1.0000    0.38422   0.93500   0.40669   Biso      1.000     O          -0.575756           
         O14       1.0000    0.38758   0.80038   0.35542   Biso      1.000     O          -0.604441           
         O15       1.0000    0.06500   0.44922   0.40669   Biso      1.000     O          -0.575751           
         O16       1.0000    0.19962   0.58720   0.35542   Biso      1.000     O          -0.6044229999999999           
         O17       1.0000    0.55078   0.61578   0.40669   Biso      1.000     O          -0.575753           
         O18       1.0000    0.41280   0.61242   0.35542   Biso      1.000     O          -0.60444  
         O19       1.0000    0.61578   0.06500   0.40669   Biso      1.000     O          -0.575756           
         O20       1.0000    0.55078   0.61578   0.59331   Biso      1.000     O          -0.575753           
         O21       1.0000    0.61242   0.19962   0.35542   Biso      1.000     O          -0.604441           
         O22       1.0000    0.93500   0.55078   0.40669   Biso      1.000     O          -0.575751           
         O23       1.0000    0.80038   0.41280   0.35542   Biso      1.000     O          -0.6044229999999999           
         O24       1.0000    0.06500   0.61578   0.09331   Biso      1.000     O          -0.575753           
         O25       1.0000    0.19962   0.58720   0.64458   Biso      1.000     O          -0.6044229999999999           
         O26       1.0000    0.58720   0.38758   0.35542   Biso      1.000     O          -0.60444  
         O27       1.0000    0.38758   0.80038   0.64458   Biso      1.000     O          -0.604442           
         O28       1.0000    0.44922   0.38422   0.40669   Biso      1.000     O          -0.575753           
         O29       1.0000    0.55078   0.93500   0.90669   Biso      1.000     O          -0.575756           
         O30       1.0000    0.41280   0.80038   0.85542   Biso      1.000     O          -0.604442           
         O31       1.0000    0.38422   0.44922   0.90669   Biso      1.000     O          -0.575751           
         O32       1.0000    0.38758   0.58720   0.85542   Biso      1.000     O          -0.6044229999999999           
         O33       1.0000    0.06500   0.61578   0.90669   Biso      1.000     O          -0.575753           
         O34       1.0000    0.19962   0.61242   0.85542   Biso      1.000     O          -0.60444  
         O35       1.0000    0.44922   0.06500   0.90669   Biso      1.000     O          -0.575756           
         O36       1.0000    0.06500   0.44922   0.59331   Biso      1.000     O          -0.575751           
         O37       1.0000    0.61578   0.55078   0.90669   Biso      1.000     O          -0.575751           
         O38       1.0000    0.58720   0.19962   0.85542   Biso      1.000     O          -0.604442           
         O39       1.0000    0.93500   0.38422   0.90669   Biso      1.000     O          -0.575753           
         O40       1.0000    0.80038   0.38758   0.85542   Biso      1.000     O          -0.60444  
         O41       1.0000    0.61578   0.06500   0.59331   Biso      1.000     O          -0.575756           
         O42       1.0000    0.61242   0.19962   0.64458   Biso      1.000     O          -0.604441           
         O43       1.0000    0.93500   0.55078   0.59331   Biso      1.000     O          -0.575751           
         O44       1.0000    0.80038   0.41280   0.64458   Biso      1.000     O          -0.6044229999999999           
         O45       1.0000    0.44922   0.38422   0.59331   Biso      1.000     O          -0.575753           
         O46       1.0000    0.58720   0.38758   0.64458   Biso      1.000     O          -0.60444  
         O47       1.0000    0.38422   0.93500   0.59331   Biso      1.000     O          -0.575756           
         O48       1.0000    0.61242   0.41280   0.85542   Biso      1.000     O          -0.6044229999999999           
         Tb1       1.0000    0.33333   0.66666   0.25000   Biso      1.000     Tb          1.8479029999999999  
         Tb2       1.0000    0.66667   0.33334   0.25000   Biso      1.000     Tb          1.8479029999999999  
         Tb3       1.0000    0.66667   0.33334   0.75000   Biso      1.000     Tb          1.8479029999999999  
         Tb4       1.0000    0.33333   0.66666   0.75000   Biso      1.000     Tb          1.8479029999999999 