
##########################################################################
#               Crystallographic Information Format file
#               Produced by PyCifRW module
#
#  This is a CIF file.  CIF has been adopted by the International
#  Union of Crystallography as the standard for data archiving and
#  transmission.
#
#  For information on this file format, follow the CIF links at
#  http://www.iucr.org
##########################################################################

data_image0

_cell_length_a                          7.4935
_cell_length_b                          13.6224
_cell_length_c                          13.6224
_cell_angle_alpha                       120
_cell_angle_beta                        90
_cell_angle_gamma                       90
_symmetry_space_group_name_H-M          'P 1'
_symmetry_int_tables_number             1
loop_
  _symmetry_equiv_pos_as_xyz
         'x, y, z' 
loop_
  _atom_site_label
  _atom_site_occupancy
  _atom_site_fract_x
  _atom_site_fract_y
  _atom_site_fract_z
  _atom_site_thermal_displace_type
  _atom_site_B_iso_or_equiv
  _atom_site_type_symbol
  _atom_site_charge
         C1        1.0000    0.68710   0.12036   0.57016   Biso      1.000     C          0.625306  
         C2        1.0000    0.03210   0.08930   0.73910   Biso      1.000     C          0.099321  
         C3        1.0000    0.73220   0.10560   0.67040   Biso      1.000     C          0.042858  
         C4        1.0000    0.40990   0.72420   0.65300   Biso      1.000     C          -0.478444           
         C5        1.0000    0.59010   0.07120   0.72420   Biso      1.000     C          -0.47844200000000003          
         C6        1.0000    0.10260   0.04350   0.78470   Biso      1.000     C          -0.499371           
         C7        1.0000    0.13650   0.54659   0.82258   Biso      1.000     C          0.574509  
         C8        1.0000    0.03210   0.64980   0.91070   Biso      1.000     C          0.099326  
         C9        1.0000    0.73220   0.56480   0.89440   Biso      1.000     C          0.042863  
         C10       1.0000    0.68710   0.44980   0.87964   Biso      1.000     C          0.6252989999999999  
         C11       1.0000    0.59010   0.65300   0.92880   Biso      1.000     C          -0.478444           
         C12       1.0000    0.10260   0.74120   0.95650   Biso      1.000     C          -0.49937299999999996          
         C13       1.0000    0.13650   0.27599   0.45341   Biso      1.000     C          0.574498  
         C14       1.0000    0.03210   0.26090   0.35020   Biso      1.000     C          0.099325  
         C15       1.0000    0.73220   0.32960   0.43520   Biso      1.000     C          0.042858  
         C16       1.0000    0.68710   0.42984   0.55020   Biso      1.000     C          0.625304  
         C17       1.0000    0.59010   0.27580   0.34700   Biso      1.000     C          -0.478444           
         C18       1.0000    0.10260   0.21530   0.25880   Biso      1.000     C          -0.49937  
         C19       1.0000    0.96790   0.73910   0.64980   Biso      1.000     C          0.099324  
         C20       1.0000    0.86350   0.72401   0.54659   Biso      1.000     C          0.574496  
         C21       1.0000    0.89740   0.25880   0.04350   Biso      1.000     C          -0.49950100000000003          
         C22       1.0000    0.40990   0.34700   0.07120   Biso      1.000     C          -0.478444           
         C23       1.0000    0.31290   0.55020   0.12036   Biso      1.000     C          0.6252989999999999  
         C24       1.0000    0.26780   0.43520   0.10560   Biso      1.000     C          0.042861  
         C25       1.0000    0.13650   0.17742   0.72401   Biso      1.000     C          0.5745020000000001  
         C26       1.0000    0.96790   0.35020   0.08930   Biso      1.000     C          0.099457  
         C27       1.0000    0.89740   0.95650   0.21530   Biso      1.000     C          -0.499497           
         C28       1.0000    0.40990   0.92880   0.27580   Biso      1.000     C          -0.478441           
         C29       1.0000    0.31290   0.87964   0.42984   Biso      1.000     C          0.625307  
         C30       1.0000    0.26780   0.89440   0.32960   Biso      1.000     C          0.042856  
         C31       1.0000    0.96790   0.91070   0.26090   Biso      1.000     C          0.099452  
         C32       1.0000    0.86350   0.82258   0.27599   Biso      1.000     C          0.574492  
         C33       1.0000    0.86350   0.45341   0.17742   Biso      1.000     C          0.574497  
         C34       1.0000    0.26780   0.67040   0.56480   Biso      1.000     C          0.042858  
         C35       1.0000    0.31290   0.57016   0.44980   Biso      1.000     C          0.6253029999999999  
         C36       1.0000    0.89740   0.78470   0.74120   Biso      1.000     C          -0.499371           
         Cu1       1.0000    0.00000   0.00000   0.50000   Biso      1.000     Cu          0.77945   
         Cu2       1.0000    0.00000   0.50000   0.00000   Biso      1.000     Cu          0.77947   
         Cu3       1.0000    0.00000   0.50000   0.50000   Biso      1.000     Cu          0.779455  
         H1        1.0000    0.35860   0.93450   0.21260   Biso      1.000     H          0.150654  
         H2        1.0000    0.76840   0.26880   0.45190   Biso      1.000     H          0.086764  
         H3        1.0000    0.95310   0.19710   0.33940   Biso      1.000     H          0.067107  
         H4        1.0000    0.86010   0.35500   0.32310   Biso      1.000     H          0.262332  
         H5        1.0000    0.20890   0.73890   0.99720   Biso      1.000     H          0.150783  
         H6        1.0000    0.13760   0.76120   0.89940   Biso      1.000     H          0.15923299999999999           
         H7        1.0000    0.01900   0.79800   0.01010   Biso      1.000     H          0.15643900000000002           
         H8        1.0000    0.49470   0.62460   0.87200   Biso      1.000     H          0.16278900000000002           
         H9        1.0000    0.54110   0.67050   0.00250   Biso      1.000     H          0.162222  
         H10       1.0000    0.64140   0.72190   0.93450   Biso      1.000     H          0.150644  
         H11       1.0000    0.76840   0.54810   0.81690   Biso      1.000     H          0.08676299999999999           
         H12       1.0000    0.20890   0.00280   0.74170   Biso      1.000     H          0.150786  
         H13       1.0000    0.86010   0.67690   0.03190   Biso      1.000     H          0.262329  
         H14       1.0000    0.64140   0.21260   0.27810   Biso      1.000     H          0.15065   
         H15       1.0000    0.13760   0.10060   0.86180   Biso      1.000     H          0.159242  
         H16       1.0000    0.01900   0.98990   0.78790   Biso      1.000     H          0.156445  
         H17       1.0000    0.49470   0.12800   0.75260   Biso      1.000     H          0.162794  
         H18       1.0000    0.54110   0.99750   0.66800   Biso      1.000     H          0.162223  
         H19       1.0000    0.64140   0.06550   0.78740   Biso      1.000     H          0.150653  
         H20       1.0000    0.76840   0.18310   0.73120   Biso      1.000     H          0.086771  
         H21       1.0000    0.95310   0.14230   0.80290   Biso      1.000     H          0.067113  
         H22       1.0000    0.86010   0.96810   0.64500   Biso      1.000     H          0.262332  
         H23       1.0000    0.95310   0.66060   0.85770   Biso      1.000     H          0.067105  
         H24       1.0000    0.54110   0.33200   0.32950   Biso      1.000     H          0.162225  
         H25       1.0000    0.49470   0.24740   0.37540   Biso      1.000     H          0.162786  
         H26       1.0000    0.01900   0.21210   0.20200   Biso      1.000     H          0.156446  
         H27       1.0000    0.45890   0.00250   0.33200   Biso      1.000     H          0.162225  
         H28       1.0000    0.50530   0.87200   0.24740   Biso      1.000     H          0.162795  
         H29       1.0000    0.98100   0.01010   0.21210   Biso      1.000     H          0.156452  
         H30       1.0000    0.86240   0.89940   0.13820   Biso      1.000     H          0.159249  
         H31       1.0000    0.79110   0.99720   0.25830   Biso      1.000     H          0.150794  
         H32       1.0000    0.13990   0.32310   0.96810   Biso      1.000     H          0.262328  
         H33       1.0000    0.04690   0.33940   0.14230   Biso      1.000     H          0.067098  
         H34       1.0000    0.23160   0.45190   0.18310   Biso      1.000     H          0.086761  
         H35       1.0000    0.35860   0.27810   0.06550   Biso      1.000     H          0.150643  
         H36       1.0000    0.45890   0.32950   0.99750   Biso      1.000     H          0.16222   
         H37       1.0000    0.04690   0.85770   0.19710   Biso      1.000     H          0.067107  
         H38       1.0000    0.98100   0.20200   0.98990   Biso      1.000     H          0.156443  
         H39       1.0000    0.23160   0.81690   0.26880   Biso      1.000     H          0.086771  
         H40       1.0000    0.86240   0.23880   0.10060   Biso      1.000     H          0.159237  
         H41       1.0000    0.13990   0.64500   0.67690   Biso      1.000     H          0.262332  
         H42       1.0000    0.04690   0.80290   0.66060   Biso      1.000     H          0.067106  
         H43       1.0000    0.23160   0.73120   0.54810   Biso      1.000     H          0.086764  
         H44       1.0000    0.35860   0.78740   0.72190   Biso      1.000     H          0.150649  
         H45       1.0000    0.45890   0.66800   0.67050   Biso      1.000     H          0.162225  
         H46       1.0000    0.50530   0.75260   0.62460   Biso      1.000     H          0.162787  
         H47       1.0000    0.98100   0.78790   0.79800   Biso      1.000     H          0.156443  
         H48       1.0000    0.86240   0.86180   0.76120   Biso      1.000     H          0.15923199999999998           
         H49       1.0000    0.79110   0.74170   0.73890   Biso      1.000     H          0.150785  
         H50       1.0000    0.13990   0.03190   0.35500   Biso      1.000     H          0.262332  
         H51       1.0000    0.20890   0.25830   0.26110   Biso      1.000     H          0.15078699999999998           
         H52       1.0000    0.13760   0.13820   0.23880   Biso      1.000     H          0.15923199999999998           
         H53       1.0000    0.79110   0.26110   0.00280   Biso      1.000     H          0.150788  
         H54       1.0000    0.50530   0.37540   0.12800   Biso      1.000     H          0.16278800000000002           
         La1       1.0000    0.34102   0.33333   0.66666   Biso      1.000     La          1.880384  
         La2       1.0000    0.65898   0.66667   0.33334   Biso      1.000     La          1.880377  
         N1        1.0000    0.89410   0.03594   0.64963   Biso      1.000     N          -0.39519699999999996          
         N2        1.0000    0.89410   0.61369   0.96406   Biso      1.000     N          -0.39519899999999997          
         N3        1.0000    0.89410   0.35037   0.38631   Biso      1.000     N          -0.39519899999999997          
         N4        1.0000    0.10590   0.96406   0.35037   Biso      1.000     N          -0.395206           
         N5        1.0000    0.10590   0.38631   0.03594   Biso      1.000     N          -0.395208           
         N6        1.0000    0.10590   0.64963   0.61369   Biso      1.000     N          -0.39519899999999997          
         O1        1.0000    0.88270   0.82035   0.36667   Biso      1.000     O          -0.633729           
         O2        1.0000    0.21140   0.92318   0.51523   Biso      1.000     O          -0.520343           
         O3        1.0000    0.44810   0.82233   0.42178   Biso      1.000     O          -0.611499           
         O4        1.0000    0.75810   0.44217   0.24152   Biso      1.000     O          -0.578241           
         O5        1.0000    0.75810   0.79935   0.55783   Biso      1.000     O          -0.5782390000000001           
         O6        1.0000    0.21140   0.59205   0.07682   Biso      1.000     O          -0.520355           
         O7        1.0000    0.44810   0.59945   0.17767   Biso      1.000     O          -0.6115010000000001           
         O8        1.0000    0.75810   0.75848   0.20065   Biso      1.000     O          -0.578232           
         O9        1.0000    0.88270   0.63333   0.45368   Biso      1.000     O          -0.63372  
         O10       1.0000    0.88270   0.54632   0.17965   Biso      1.000     O          -0.633772           
         O11       1.0000    0.55190   0.42178   0.59945   Biso      1.000     O          -0.611502           
         O12       1.0000    0.24190   0.20065   0.44217   Biso      1.000     O          -0.5782390000000001           
         O13       1.0000    0.11730   0.36667   0.54632   Biso      1.000     O          -0.6337189999999999           
         O14       1.0000    0.21140   0.48477   0.40795   Biso      1.000     O          -0.520347           
         O15       1.0000    0.55190   0.40055   0.82233   Biso      1.000     O          -0.611502           
         O16       1.0000    0.78860   0.40795   0.92318   Biso      1.000     O          -0.520353           
         O17       1.0000    0.11730   0.45368   0.82035   Biso      1.000     O          -0.633767           
         O18       1.0000    0.24190   0.55783   0.75848   Biso      1.000     O          -0.5782390000000001           
         O19       1.0000    0.55190   0.17767   0.57822   Biso      1.000     O          -0.6115010000000001           
         O20       1.0000    0.78860   0.07682   0.48477   Biso      1.000     O          -0.520346           
         O21       1.0000    0.11730   0.17965   0.63333   Biso      1.000     O          -0.63373  
         O22       1.0000    0.24190   0.24152   0.79935   Biso      1.000     O          -0.578231           
         O23       1.0000    0.78860   0.51523   0.59205   Biso      1.000     O          -0.520346           
         O24       1.0000    0.44810   0.57822   0.40055   Biso      1.000     O          -0.611502 