
##########################################################################
#               Crystallographic Information Format file
#               Produced by PyCifRW module
#
#  This is a CIF file.  CIF has been adopted by the International
#  Union of Crystallography as the standard for data archiving and
#  transmission.
#
#  For information on this file format, follow the CIF links at
#  http://www.iucr.org
##########################################################################

data_image0

_cell_length_a                          7.4147
_cell_length_b                          13.6614
_cell_length_c                          13.6614
_cell_angle_alpha                       120
_cell_angle_beta                        90
_cell_angle_gamma                       90
_symmetry_space_group_name_H-M          'P 1'
_symmetry_int_tables_number             1
loop_
  _symmetry_equiv_pos_as_xyz
         'x, y, z' 
loop_
  _atom_site_label
  _atom_site_occupancy
  _atom_site_fract_x
  _atom_site_fract_y
  _atom_site_fract_z
  _atom_site_thermal_displace_type
  _atom_site_B_iso_or_equiv
  _atom_site_type_symbol
  _atom_site_charge
         C1        1.0000    0.68510   0.87791   0.44856   Biso      1.000     C          0.637274  
         C2        1.0000    0.09120   0.25840   0.21140   Biso      1.000     C          -0.512771           
         C3        1.0000    0.68510   0.55144   0.42935   Biso      1.000     C          0.637272  
         C4        1.0000    0.73090   0.43620   0.32920   Biso      1.000     C          0.044304  
         C5        1.0000    0.03330   0.35175   0.26155   Biso      1.000     C          0.107281  
         C6        1.0000    0.13740   0.45499   0.27563   Biso      1.000     C          0.576398  
         C7        1.0000    0.09120   0.78860   0.04700   Biso      1.000     C          -0.512769           
         C8        1.0000    0.58840   0.72420   0.07310   Biso      1.000     C          -0.493708           
         C9        1.0000    0.86260   0.17936   0.45499   Biso      1.000     C          0.576404  
         C10       1.0000    0.68510   0.57065   0.12209   Biso      1.000     C          0.63727   
         C11       1.0000    0.03330   0.73845   0.09020   Biso      1.000     C          0.107282  
         C12       1.0000    0.13740   0.72437   0.17936   Biso      1.000     C          0.576394  
         C13       1.0000    0.09120   0.95300   0.74160   Biso      1.000     C          -0.512772           
         C14       1.0000    0.58840   0.92690   0.65110   Biso      1.000     C          -0.493709           
         C15       1.0000    0.73090   0.89300   0.56380   Biso      1.000     C          0.044301  
         C16       1.0000    0.03330   0.90980   0.64825   Biso      1.000     C          0.107281  
         C17       1.0000    0.13740   0.82064   0.54501   Biso      1.000     C          0.576394  
         C18       1.0000    0.73090   0.67080   0.10700   Biso      1.000     C          0.044306  
         C19       1.0000    0.96670   0.09020   0.35175   Biso      1.000     C          0.107132  
         C20       1.0000    0.58840   0.34890   0.27580   Biso      1.000     C          -0.493709           
         C21       1.0000    0.31490   0.12209   0.55144   Biso      1.000     C          0.637272  
         C22       1.0000    0.90880   0.74160   0.78860   Biso      1.000     C          -0.512772           
         C23       1.0000    0.41160   0.65110   0.72420   Biso      1.000     C          -0.493709           
         C24       1.0000    0.26910   0.10700   0.43620   Biso      1.000     C          0.044303  
         C25       1.0000    0.26910   0.56380   0.67080   Biso      1.000     C          0.044303  
         C26       1.0000    0.96670   0.64825   0.73845   Biso      1.000     C          0.107281  
         C27       1.0000    0.86260   0.54501   0.72437   Biso      1.000     C          0.576397  
         C28       1.0000    0.90880   0.21140   0.95300   Biso      1.000     C          -0.512772           
         C29       1.0000    0.31490   0.44856   0.57065   Biso      1.000     C          0.637272  
         C30       1.0000    0.31490   0.42935   0.87791   Biso      1.000     C          0.637269  
         C31       1.0000    0.41160   0.27580   0.92690   Biso      1.000     C          -0.493709           
         C32       1.0000    0.90880   0.04700   0.25840   Biso      1.000     C          -0.512628           
         C33       1.0000    0.41160   0.07310   0.34890   Biso      1.000     C          -0.49371  
         C34       1.0000    0.96670   0.26155   0.90980   Biso      1.000     C          0.107282  
         C35       1.0000    0.26910   0.32920   0.89300   Biso      1.000     C          0.044305  
         C36       1.0000    0.86260   0.27563   0.82064   Biso      1.000     C          0.576393  
         Cu1       1.0000    0.00000   0.50000   0.50000   Biso      1.000     Cu          0.786521  
         Cu2       1.0000    0.00000   0.50000   0.00000   Biso      1.000     Cu          0.786519  
         Cu3       1.0000    0.00000   0.00000   0.50000   Biso      1.000     Cu          0.786522  
         H1        1.0000    0.14020   0.67480   0.64560   Biso      1.000     H          0.267242  
         H2        1.0000    0.88570   0.76180   0.86560   Biso      1.000     H          0.161499  
         H3        1.0000    0.79860   0.74580   0.75400   Biso      1.000     H          0.15299   
         H4        1.0000    0.99530   0.79310   0.78700   Biso      1.000     H          0.164297  
         H5        1.0000    0.50580   0.62330   0.75210   Biso      1.000     H          0.167913  
         H6        1.0000    0.36070   0.71840   0.78580   Biso      1.000     H          0.155263  
         H7        1.0000    0.23250   0.54770   0.73030   Biso      1.000     H          0.087304  
         H8        1.0000    0.04760   0.65520   0.79830   Biso      1.000     H          0.073854  
         H9        1.0000    0.88570   0.13440   0.89620   Biso      1.000     H          0.161498  
         H10       1.0000    0.46040   0.66800   0.66930   Biso      1.000     H          0.167491  
         H11       1.0000    0.99530   0.21300   0.00610   Biso      1.000     H          0.164296  
         H12       1.0000    0.95240   0.34480   0.20170   Biso      1.000     H          0.073856  
         H13       1.0000    0.85980   0.32520   0.35440   Biso      1.000     H          0.267243  
         H14       1.0000    0.11430   0.86560   0.10380   Biso      1.000     H          0.161503  
         H15       1.0000    0.20140   0.75400   0.00820   Biso      1.000     H          0.152995  
         H16       1.0000    0.00470   0.78700   0.99390   Biso      1.000     H          0.164302  
         H17       1.0000    0.79860   0.24600   0.99180   Biso      1.000     H          0.152989  
         H18       1.0000    0.49420   0.75210   0.12880   Biso      1.000     H          0.167917  
         H19       1.0000    0.63930   0.78580   0.06740   Biso      1.000     H          0.155267  
         H20       1.0000    0.76750   0.73030   0.18260   Biso      1.000     H          0.087303  
         H21       1.0000    0.76750   0.45230   0.26970   Biso      1.000     H          0.087305  
         H22       1.0000    0.95240   0.79830   0.14310   Biso      1.000     H          0.073854  
         H23       1.0000    0.11430   0.89620   0.76180   Biso      1.000     H          0.161501  
         H24       1.0000    0.20140   0.99180   0.74580   Biso      1.000     H          0.152991  
         H25       1.0000    0.00470   0.00610   0.79310   Biso      1.000     H          0.1643    
         H26       1.0000    0.53960   0.99870   0.66800   Biso      1.000     H          0.167495  
         H27       1.0000    0.49420   0.87120   0.62330   Biso      1.000     H          0.167911  
         H28       1.0000    0.63930   0.93260   0.71840   Biso      1.000     H          0.155267  
         H29       1.0000    0.76750   0.81740   0.54770   Biso      1.000     H          0.087302  
         H30       1.0000    0.95240   0.85690   0.65520   Biso      1.000     H          0.073855  
         H31       1.0000    0.85980   0.02920   0.67480   Biso      1.000     H          0.267246  
         H32       1.0000    0.85980   0.64560   0.97080   Biso      1.000     H          0.267245  
         H33       1.0000    0.63930   0.28160   0.21420   Biso      1.000     H          0.155266  
         H34       1.0000    0.53960   0.66930   0.00130   Biso      1.000     H          0.167499  
         H35       1.0000    0.53960   0.33200   0.33070   Biso      1.000     H          0.167493  
         H36       1.0000    0.46040   0.33070   0.99870   Biso      1.000     H          0.167493  
         H37       1.0000    0.50580   0.24790   0.87120   Biso      1.000     H          0.167914  
         H38       1.0000    0.49420   0.37670   0.24790   Biso      1.000     H          0.167914  
         H39       1.0000    0.23250   0.26970   0.81740   Biso      1.000     H          0.087301  
         H40       1.0000    0.04760   0.20170   0.85690   Biso      1.000     H          0.073853  
         H41       1.0000    0.14020   0.35440   0.02920   Biso      1.000     H          0.267243  
         H42       1.0000    0.88570   0.10380   0.23820   Biso      1.000     H          0.161495  
         H43       1.0000    0.79860   0.00820   0.25420   Biso      1.000     H          0.152984  
         H44       1.0000    0.99530   0.99390   0.20690   Biso      1.000     H          0.164293  
         H45       1.0000    0.36070   0.21420   0.93260   Biso      1.000     H          0.155263  
         H46       1.0000    0.50580   0.12880   0.37670   Biso      1.000     H          0.167913  
         H47       1.0000    0.36070   0.06740   0.28160   Biso      1.000     H          0.155268  
         H48       1.0000    0.23250   0.18260   0.45230   Biso      1.000     H          0.087305  
         H49       1.0000    0.04760   0.14310   0.34480   Biso      1.000     H          0.073861  
         H50       1.0000    0.14020   0.97080   0.32520   Biso      1.000     H          0.267245  
         H51       1.0000    0.11430   0.23820   0.13440   Biso      1.000     H          0.161502  
         H52       1.0000    0.20140   0.25420   0.24600   Biso      1.000     H          0.15299   
         H53       1.0000    0.00470   0.20690   0.21300   Biso      1.000     H          0.164297  
         H54       1.0000    0.46040   0.00130   0.33200   Biso      1.000     H          0.167496  
         N1        1.0000    0.10620   0.61292   0.64959   Biso      1.000     N          -0.404244           
         N2        1.0000    0.10620   0.35041   0.96333   Biso      1.000     N          -0.404242           
         N3        1.0000    0.10620   0.03667   0.38708   Biso      1.000     N          -0.404232           
         N4        1.0000    0.89380   0.38708   0.35041   Biso      1.000     N          -0.404244           
         N5        1.0000    0.89380   0.96333   0.61292   Biso      1.000     N          -0.404242           
         N6        1.0000    0.89380   0.64959   0.03667   Biso      1.000     N          -0.404242           
         O1        1.0000    0.87970   0.45307   0.63404   Biso      1.000     O          -0.670483           
         O2        1.0000    0.55080   0.60115   0.42063   Biso      1.000     O          -0.656461           
         O3        1.0000    0.75880   0.55641   0.80070   Biso      1.000     O          -0.600686           
         O4        1.0000    0.44920   0.42063   0.81948   Biso      1.000     O          -0.656461           
         O5        1.0000    0.21170   0.51464   0.92156   Biso      1.000     O          -0.521141           
         O6        1.0000    0.87970   0.36596   0.81903   Biso      1.000     O          -0.670453           
         O7        1.0000    0.75880   0.19930   0.75571   Biso      1.000     O          -0.600703           
         O8        1.0000    0.44920   0.18052   0.60115   Biso      1.000     O          -0.656466           
         O9        1.0000    0.21170   0.07844   0.59308   Biso      1.000     O          -0.521134           
         O10       1.0000    0.87970   0.18097   0.54693   Biso      1.000     O          -0.67044  
         O11       1.0000    0.75880   0.24429   0.44359   Biso      1.000     O          -0.600681           
         O12       1.0000    0.78830   0.59308   0.51464   Biso      1.000     O          -0.521136           
         O13       1.0000    0.44920   0.39885   0.57937   Biso      1.000     O          -0.656461           
         O14       1.0000    0.24120   0.44359   0.19930   Biso      1.000     O          -0.600682           
         O15       1.0000    0.55080   0.57937   0.18052   Biso      1.000     O          -0.656459           
         O16       1.0000    0.78830   0.48536   0.07844   Biso      1.000     O          -0.521135           
         O17       1.0000    0.12030   0.63404   0.18097   Biso      1.000     O          -0.670445           
         O18       1.0000    0.24120   0.80070   0.24429   Biso      1.000     O          -0.600698           
         O19       1.0000    0.55080   0.81948   0.39885   Biso      1.000     O          -0.656467           
         O20       1.0000    0.78830   0.92156   0.40692   Biso      1.000     O          -0.521135           
         O21       1.0000    0.12030   0.81903   0.45307   Biso      1.000     O          -0.670445           
         O22       1.0000    0.24120   0.75571   0.55641   Biso      1.000     O          -0.600679           
         O23       1.0000    0.21170   0.40692   0.48536   Biso      1.000     O          -0.521139           
         O24       1.0000    0.12030   0.54693   0.36596   Biso      1.000     O          -0.670482           
         Pr1       1.0000    0.65995   0.33333   0.66666   Biso      1.000     Pr          2.109267  
         Pr2       1.0000    0.34005   0.66667   0.33334   Biso      1.000     Pr          2.109276 