
##########################################################################
#               Crystallographic Information Format file
#               Produced by PyCifRW module
#
#  This is a CIF file.  CIF has been adopted by the International
#  Union of Crystallography as the standard for data archiving and
#  transmission.
#
#  For information on this file format, follow the CIF links at
#  http://www.iucr.org
##########################################################################

data_image0

_cell_length_a                          12.367
_cell_length_b                          12.367
_cell_length_c                          5.2934
_cell_angle_alpha                       90
_cell_angle_beta                        90
_cell_angle_gamma                       90
_symmetry_space_group_name_H-M          'P 1'
_symmetry_int_tables_number             1
loop_
  _symmetry_equiv_pos_as_xyz
         'x, y, z' 
loop_
  _atom_site_label
  _atom_site_occupancy
  _atom_site_fract_x
  _atom_site_fract_y
  _atom_site_fract_z
  _atom_site_thermal_displace_type
  _atom_site_B_iso_or_equiv
  _atom_site_type_symbol
  _atom_site_charge
         C1        1.0000    0.79350   0.29630   0.50490   Biso      1.000     C          -0.0012980000000000001        
         C2        1.0000    0.10440   0.50340   0.58440   Biso      1.000     C          0.6022529999999999  
         C3        1.0000    0.18660   0.79330   0.81090   Biso      1.000     C          0.580843  
         C4        1.0000    0.31850   0.65440   0.97820   Biso      1.000     C          -0.254778           
         C5        1.0000    0.29630   0.20650   0.25490   Biso      1.000     C          -0.001271           
         C6        1.0000    0.68150   0.34560   0.47820   Biso      1.000     C          -0.254773           
         C7        1.0000    0.20670   0.18660   0.06090   Biso      1.000     C          0.580842  
         C8        1.0000    0.47400   0.16890   0.06890   Biso      1.000     C          -0.03222  
         C9        1.0000    0.50340   0.89560   0.33440   Biso      1.000     C          0.602238  
         C10       1.0000    0.16890   0.52600   0.81890   Biso      1.000     C          -0.032221           
         C11       1.0000    0.34560   0.31850   0.22820   Biso      1.000     C          -0.254769           
         C12       1.0000    0.79330   0.81340   0.56090   Biso      1.000     C          0.5808760000000001  
         C13       1.0000    0.20650   0.70370   0.00490   Biso      1.000     C          -0.0012779999999999998        
         C14       1.0000    0.70370   0.79350   0.75490   Biso      1.000     C          -0.001292           
         C15       1.0000    0.81340   0.20670   0.31090   Biso      1.000     C          0.580906  
         C16       1.0000    0.83110   0.47400   0.31890   Biso      1.000     C          -0.03223  
         C17       1.0000    0.65440   0.68150   0.72820   Biso      1.000     C          -0.254775           
         C18       1.0000    0.49660   0.10440   0.83440   Biso      1.000     C          0.6022569999999999  
         C19       1.0000    0.89560   0.49660   0.08440   Biso      1.000     C          0.60224   
         C20       1.0000    0.52600   0.83110   0.56890   Biso      1.000     C          -0.032237           
         Co1       1.0000    0.67880   0.01520   0.53730   Biso      1.000     Co          0.945492  
         Co2       1.0000    0.98480   0.67880   0.78730   Biso      1.000     Co          0.9446950000000001  
         Co3       1.0000    0.32120   0.98480   0.03730   Biso      1.000     Co          0.9442790000000001  
         Co4       1.0000    0.01520   0.32120   0.28730   Biso      1.000     Co          0.94491   
         H1        1.0000    0.19910   0.73390   0.17510   Biso      1.000     H          0.117039  
         H2        1.0000    0.66040   0.38230   0.63240   Biso      1.000     H          0.111002  
         H3        1.0000    0.62830   0.29030   0.44010   Biso      1.000     H          0.150741  
         H4        1.0000    0.80090   0.26610   0.67510   Biso      1.000     H          0.11706099999999998           
         H5        1.0000    0.82910   0.53940   0.42340   Biso      1.000     H          0.11411700000000001           
         H6        1.0000    0.37170   0.70970   0.94010   Biso      1.000     H          0.150705  
         H7        1.0000    0.33960   0.61770   0.13240   Biso      1.000     H          0.110963  
         H8        1.0000    0.17090   0.46060   0.92340   Biso      1.000     H          0.114101  
         H9        1.0000    0.12270   0.59980   0.12000   Biso      1.000     H          0.298011  
         H10       1.0000    0.40020   0.12270   0.37000   Biso      1.000     H          0.298004  
         H11       1.0000    0.59980   0.87730   0.87000   Biso      1.000     H          0.298055  
         H12       1.0000    0.61770   0.66040   0.88240   Biso      1.000     H          0.111     
         H13       1.0000    0.70970   0.62830   0.69010   Biso      1.000     H          0.15075   
         H14       1.0000    0.73390   0.80090   0.92510   Biso      1.000     H          0.117066  
         H15       1.0000    0.46060   0.82910   0.67340   Biso      1.000     H          0.11415   
         H16       1.0000    0.38230   0.33960   0.38240   Biso      1.000     H          0.11098599999999999           
         H17       1.0000    0.29030   0.37170   0.19010   Biso      1.000     H          0.150749  
         H18       1.0000    0.87730   0.40020   0.62000   Biso      1.000     H          0.298034  
         H19       1.0000    0.53940   0.17090   0.17340   Biso      1.000     H          0.11408299999999999           
         H20       1.0000    0.26610   0.19910   0.42510   Biso      1.000     H          0.11706   
         N1        1.0000    0.38300   0.12640   0.22180   Biso      1.000     N          -0.44527100000000003          
         N2        1.0000    0.61700   0.87360   0.72180   Biso      1.000     N          -0.44537  
         N3        1.0000    0.12640   0.61700   0.97180   Biso      1.000     N          -0.44530200000000003          
         N4        1.0000    0.87360   0.38300   0.47180   Biso      1.000     N          -0.44531400000000004          
         O1        1.0000    0.96780   0.42970   0.01880   Biso      1.000     O          -0.529709           
         O2        1.0000    0.89980   0.20710   0.18400   Biso      1.000     O          -0.517251           
         O3        1.0000    0.74290   0.13220   0.28620   Biso      1.000     O          -0.559864           
         O4        1.0000    0.42970   0.03220   0.76880   Biso      1.000     O          -0.529664           
         O5        1.0000    0.20710   0.10020   0.93400   Biso      1.000     O          -0.5172859999999999           
         O6        1.0000    0.86780   0.74290   0.53620   Biso      1.000     O          -0.5597409999999999           
         O7        1.0000    0.79290   0.89980   0.43400   Biso      1.000     O          -0.517324           
         O8        1.0000    0.57030   0.96780   0.26880   Biso      1.000     O          -0.529749           
         O9        1.0000    0.41950   0.87230   0.21660   Biso      1.000     O          -0.5438   
         O10       1.0000    0.87230   0.58050   0.96660   Biso      1.000     O          -0.543979           
         O11       1.0000    0.12770   0.41950   0.46660   Biso      1.000     O          -0.543983           
         O12       1.0000    0.03220   0.57030   0.51880   Biso      1.000     O          -0.52973  
         O13       1.0000    0.10020   0.79290   0.68400   Biso      1.000     O          -0.517371           
         O14       1.0000    0.25710   0.86780   0.78620   Biso      1.000     O          -0.559817           
         O15       1.0000    0.13220   0.25710   0.03620   Biso      1.000     O          -0.5599029999999999           
         O16       1.0000    0.58050   0.12770   0.71660   Biso      1.000     O          -0.544061           
         S1        1.0000    0.30695   0.56086   0.72320   Biso      1.000     S          -0.034529000000000004         
         S2        1.0000    0.56086   0.69305   0.47320   Biso      1.000     S          -0.034401           
         S3        1.0000    0.43914   0.30695   0.97320   Biso      1.000     S          -0.034487000000000004         
         S4        1.0000    0.69305   0.43914   0.22320   Biso      1.000     S          -0.034460000000000005 