
##########################################################################
#               Crystallographic Information Format file
#               Produced by PyCifRW module
#
#  This is a CIF file.  CIF has been adopted by the International
#  Union of Crystallography as the standard for data archiving and
#  transmission.
#
#  For information on this file format, follow the CIF links at
#  http://www.iucr.org
##########################################################################

data_image0

_cell_length_a                          15.0393
_cell_length_b                          15.0393
_cell_length_c                          11.9587
_cell_angle_alpha                       90
_cell_angle_beta                        90
_cell_angle_gamma                       90
_symmetry_space_group_name_H-M          'P 1'
_symmetry_int_tables_number             1
loop_
  _symmetry_equiv_pos_as_xyz
         'x, y, z' 
loop_
  _atom_site_label
  _atom_site_occupancy
  _atom_site_fract_x
  _atom_site_fract_y
  _atom_site_fract_z
  _atom_site_thermal_displace_type
  _atom_site_B_iso_or_equiv
  _atom_site_type_symbol
  _atom_site_charge
         C1        1.0000    0.75110   0.25510   0.56201   Biso      1.000     C          0.072741  
         C2        1.0000    0.75110   0.74490   0.93799   Biso      1.000     C          0.072741  
         C3        1.0000    0.18870   0.79570   0.24480   Biso      1.000     C          -0.130653           
         C4        1.0000    0.61160   0.66540   0.57820   Biso      1.000     C          0.63967   
         C5        1.0000    0.18850   0.79710   0.36030   Biso      1.000     C          -0.011821           
         C6        1.0000    0.25480   0.75390   0.41900   Biso      1.000     C          -0.099976           
         C7        1.0000    0.87890   0.84230   0.58210   Biso      1.000     C          0.648724  
         C8        1.0000    0.32120   0.70930   0.36220   Biso      1.000     C          -0.010081           
         C9        1.0000    0.32130   0.70790   0.24670   Biso      1.000     C          -0.128847           
         C10       1.0000    0.25510   0.24890   0.31201   Biso      1.000     C          0.072741  
         C11       1.0000    0.32130   0.29210   0.25330   Biso      1.000     C          -0.12884400000000001          
         C12       1.0000    0.32120   0.29070   0.13780   Biso      1.000     C          -0.010084000000000001         
         C13       1.0000    0.25480   0.24610   0.08100   Biso      1.000     C          -0.099976           
         C14       1.0000    0.18850   0.20290   0.13970   Biso      1.000     C          -0.011818           
         C15       1.0000    0.18870   0.20430   0.25520   Biso      1.000     C          -0.130654           
         C16       1.0000    0.25510   0.75110   0.18799   Biso      1.000     C          0.072744  
         C17       1.0000    0.84230   0.87890   0.16790   Biso      1.000     C          0.6487229999999999  
         C18       1.0000    0.66540   0.61160   0.17180   Biso      1.000     C          0.63967   
         C19       1.0000    0.70790   0.67870   0.99670   Biso      1.000     C          -0.12884400000000001          
         C20       1.0000    0.33460   0.38840   0.67180   Biso      1.000     C          0.639671  
         C21       1.0000    0.70930   0.67880   0.11220   Biso      1.000     C          -0.010084000000000001         
         C22       1.0000    0.75390   0.74520   0.16900   Biso      1.000     C          -0.099976           
         C23       1.0000    0.79710   0.81150   0.11030   Biso      1.000     C          -0.011817           
         C24       1.0000    0.20430   0.18870   0.49480   Biso      1.000     C          -0.130653           
         C25       1.0000    0.81130   0.79570   0.75520   Biso      1.000     C          -0.130653           
         C26       1.0000    0.20290   0.18850   0.61030   Biso      1.000     C          -0.011822           
         C27       1.0000    0.29070   0.32120   0.61220   Biso      1.000     C          -0.010084000000000001         
         C28       1.0000    0.29210   0.32130   0.49670   Biso      1.000     C          -0.128847           
         C29       1.0000    0.24890   0.25510   0.43799   Biso      1.000     C          0.072744  
         C30       1.0000    0.79570   0.81130   0.99480   Biso      1.000     C          -0.130654           
         C31       1.0000    0.12110   0.15770   0.08210   Biso      1.000     C          0.648724  
         C32       1.0000    0.38840   0.33460   0.07820   Biso      1.000     C          0.63967   
         C33       1.0000    0.24610   0.25480   0.66900   Biso      1.000     C          -0.099972           
         C34       1.0000    0.81150   0.79710   0.63970   Biso      1.000     C          -0.011821           
         C35       1.0000    0.15770   0.12110   0.66790   Biso      1.000     C          0.648725  
         C36       1.0000    0.67880   0.70930   0.63780   Biso      1.000     C          -0.010084000000000001         
         C37       1.0000    0.70790   0.32130   0.50330   Biso      1.000     C          -0.12884400000000001          
         C38       1.0000    0.70930   0.32120   0.38780   Biso      1.000     C          -0.010084000000000001         
         C39       1.0000    0.75390   0.25480   0.33100   Biso      1.000     C          -0.099977           
         C40       1.0000    0.79710   0.18850   0.38970   Biso      1.000     C          -0.011818           
         C41       1.0000    0.79570   0.18870   0.50520   Biso      1.000     C          -0.130654           
         C42       1.0000    0.87890   0.15770   0.91790   Biso      1.000     C          0.6487229999999999  
         C43       1.0000    0.61160   0.33460   0.92180   Biso      1.000     C          0.639671  
         C44       1.0000    0.66540   0.38840   0.32820   Biso      1.000     C          0.6396689999999999  
         C45       1.0000    0.84230   0.12110   0.33210   Biso      1.000     C          0.648724  
         C46       1.0000    0.81130   0.20430   0.74480   Biso      1.000     C          -0.130654           
         C47       1.0000    0.81150   0.20290   0.86030   Biso      1.000     C          -0.011821           
         C48       1.0000    0.74520   0.75390   0.58100   Biso      1.000     C          -0.099972           
         C49       1.0000    0.29210   0.67870   0.00330   Biso      1.000     C          -0.128847           
         C50       1.0000    0.29070   0.67880   0.88780   Biso      1.000     C          -0.010084000000000001         
         C51       1.0000    0.24890   0.74490   0.06201   Biso      1.000     C          0.072744  
         C52       1.0000    0.20290   0.81150   0.88970   Biso      1.000     C          -0.011822           
         C53       1.0000    0.20430   0.81130   0.00520   Biso      1.000     C          -0.130653           
         C54       1.0000    0.74520   0.24610   0.91900   Biso      1.000     C          -0.099977           
         C55       1.0000    0.67880   0.29070   0.86220   Biso      1.000     C          -0.010081           
         C56       1.0000    0.67870   0.70790   0.75330   Biso      1.000     C          -0.128847           
         C57       1.0000    0.67870   0.29210   0.74670   Biso      1.000     C          -0.128848           
         C58       1.0000    0.74490   0.75110   0.81201   Biso      1.000     C          0.072744  
         C59       1.0000    0.33460   0.61160   0.82820   Biso      1.000     C          0.639671  
         C60       1.0000    0.24610   0.74520   0.83100   Biso      1.000     C          -0.099972           
         C61       1.0000    0.74490   0.24890   0.68799   Biso      1.000     C          0.072744  
         C62       1.0000    0.38840   0.66540   0.42180   Biso      1.000     C          0.63967   
         C63       1.0000    0.12110   0.84230   0.41790   Biso      1.000     C          0.648725  
         C64       1.0000    0.15770   0.87890   0.83210   Biso      1.000     C          0.648725  
         H1        1.0000    0.36600   0.67780   0.20850   Biso      1.000     H          0.139287  
         H2        1.0000    0.14400   0.82480   0.20520   Biso      1.000     H          0.135208  
         H3        1.0000    0.74530   0.24520   0.99680   Biso      1.000     H          0.138433  
         H4        1.0000    0.63400   0.32220   0.70850   Biso      1.000     H          0.139287  
         H5        1.0000    0.67780   0.63400   0.95850   Biso      1.000     H          0.139286  
         H6        1.0000    0.75480   0.74530   0.24680   Biso      1.000     H          0.138433  
         H7        1.0000    0.82480   0.85600   0.95520   Biso      1.000     H          0.135208  
         H8        1.0000    0.85600   0.17520   0.70520   Biso      1.000     H          0.135208  
         H9        1.0000    0.25470   0.75480   0.49680   Biso      1.000     H          0.138433  
         H10       1.0000    0.24520   0.25470   0.74680   Biso      1.000     H          0.138433  
         H11       1.0000    0.85600   0.82480   0.79480   Biso      1.000     H          0.135208  
         H12       1.0000    0.36600   0.32220   0.29150   Biso      1.000     H          0.139287  
         H13       1.0000    0.17520   0.85600   0.04480   Biso      1.000     H          0.135208  
         H14       1.0000    0.25470   0.24520   0.00320   Biso      1.000     H          0.138433  
         H15       1.0000    0.67780   0.36600   0.54150   Biso      1.000     H          0.139286  
         H16       1.0000    0.14400   0.17520   0.29480   Biso      1.000     H          0.135208  
         H17       1.0000    0.75480   0.25470   0.25320   Biso      1.000     H          0.138433  
         H18       1.0000    0.74530   0.75480   0.50320   Biso      1.000     H          0.138433  
         H19       1.0000    0.82480   0.14400   0.54480   Biso      1.000     H          0.135208  
         H20       1.0000    0.32220   0.36600   0.45850   Biso      1.000     H          0.139287  
         H21       1.0000    0.17520   0.14400   0.45520   Biso      1.000     H          0.135208  
         H22       1.0000    0.32220   0.63400   0.04150   Biso      1.000     H          0.139286  
         H23       1.0000    0.24520   0.74530   0.75320   Biso      1.000     H          0.138433  
         H24       1.0000    0.63400   0.67780   0.79150   Biso      1.000     H          0.139287  
         O1        1.0000    0.87700   0.13400   0.23380   Biso      1.000     O          -0.60626  
         O2        1.0000    0.63790   0.37700   0.22610   Biso      1.000     O          -0.580516           
         O3        1.0000    0.85230   0.04180   0.37360   Biso      1.000     O          -0.600209           
         O4        1.0000    0.65000   0.46620   0.37160   Biso      1.000     O          -0.6050810000000001           
         O5        1.0000    0.14770   0.04180   0.62640   Biso      1.000     O          -0.60021  
         O6        1.0000    0.62300   0.36210   0.02390   Biso      1.000     O          -0.5805170000000001           
         O7        1.0000    0.86600   0.12300   0.01620   Biso      1.000     O          -0.60626  
         O8        1.0000    0.95820   0.14770   0.87640   Biso      1.000     O          -0.60021  
         O9        1.0000    0.98180   0.00000   0.25000   Biso      1.000     O          -0.896109           
         O10       1.0000    0.01820   0.00000   0.75000   Biso      1.000     O          -0.896109           
         O11       1.0000    0.00000   0.98180   0.50000   Biso      1.000     O          -0.896109           
         O12       1.0000    0.00000   0.01820   0.00000   Biso      1.000     O          -0.896108           
         O13       1.0000    0.49010   0.50000   0.25000   Biso      1.000     O          -0.8811450000000001           
         O14       1.0000    0.50990   0.50000   0.75000   Biso      1.000     O          -0.881143           
         O15       1.0000    0.53380   0.35000   0.87840   Biso      1.000     O          -0.605082           
         O16       1.0000    0.35000   0.53380   0.87160   Biso      1.000     O          -0.605082           
         O17       1.0000    0.04180   0.85230   0.37640   Biso      1.000     O          -0.60021  
         O18       1.0000    0.13400   0.87700   0.51620   Biso      1.000     O          -0.60626  
         O19       1.0000    0.36210   0.37700   0.77390   Biso      1.000     O          -0.580519           
         O20       1.0000    0.35000   0.46620   0.62840   Biso      1.000     O          -0.6050800000000001           
         O21       1.0000    0.50000   0.49010   0.50000   Biso      1.000     O          -0.881144           
         O22       1.0000    0.04180   0.14770   0.12360   Biso      1.000     O          -0.60021  
         O23       1.0000    0.13400   0.12300   0.98380   Biso      1.000     O          -0.60626  
         O24       1.0000    0.37700   0.36210   0.97610   Biso      1.000     O          -0.580518           
         O25       1.0000    0.12300   0.13400   0.76620   Biso      1.000     O          -0.60626  
         O26       1.0000    0.46620   0.35000   0.12160   Biso      1.000     O          -0.6050800000000001           
         O27       1.0000    0.65000   0.53380   0.12840   Biso      1.000     O          -0.6050800000000001           
         O28       1.0000    0.63790   0.62300   0.27390   Biso      1.000     O          -0.580519           
         O29       1.0000    0.50000   0.50990   0.00000   Biso      1.000     O          -0.881144           
         O30       1.0000    0.85230   0.95820   0.12640   Biso      1.000     O          -0.60021  
         O31       1.0000    0.36210   0.62300   0.72610   Biso      1.000     O          -0.5805170000000001           
         O32       1.0000    0.37700   0.63790   0.52390   Biso      1.000     O          -0.5805170000000001           
         O33       1.0000    0.46620   0.65000   0.37840   Biso      1.000     O          -0.6050810000000001           
         O34       1.0000    0.87700   0.86600   0.26620   Biso      1.000     O          -0.60626  
         O35       1.0000    0.14770   0.95820   0.87360   Biso      1.000     O          -0.60021  
         O36       1.0000    0.53380   0.65000   0.62160   Biso      1.000     O          -0.6050800000000001           
         O37       1.0000    0.12300   0.86600   0.73380   Biso      1.000     O          -0.60626  
         O38       1.0000    0.62300   0.63790   0.47610   Biso      1.000     O          -0.580518           
         O39       1.0000    0.86600   0.87700   0.48380   Biso      1.000     O          -0.606259           
         O40       1.0000    0.95820   0.85230   0.62360   Biso      1.000     O          -0.60021  
         V1        1.0000    0.93700   0.93700   0.37500   Biso      1.000     V          1.9199540000000002  
         V2        1.0000    0.06300   0.93700   0.62500   Biso      1.000     V          1.9199540000000002  
         V3        1.0000    0.55700   0.55700   0.37500   Biso      1.000     V          1.8560619999999999  
         V4        1.0000    0.44300   0.44300   0.87500   Biso      1.000     V          1.8560619999999999  
         V5        1.0000    0.44300   0.55700   0.62500   Biso      1.000     V          1.8560599999999998  
         V6        1.0000    0.55700   0.44300   0.12500   Biso      1.000     V          1.856061  
         V7        1.0000    0.06300   0.06300   0.87500   Biso      1.000     V          1.9199540000000002  
         V8        1.0000    0.93700   0.06300   0.12500   Biso      1.000     V          1.9199529999999998 