
##########################################################################
#               Crystallographic Information Format file
#               Produced by PyCifRW module
#
#  This is a CIF file.  CIF has been adopted by the International
#  Union of Crystallography as the standard for data archiving and
#  transmission.
#
#  For information on this file format, follow the CIF links at
#  http://www.iucr.org
##########################################################################

data_image0

_cell_length_a                          15.1606
_cell_length_b                          15.1606
_cell_length_c                          12.0474
_cell_angle_alpha                       90
_cell_angle_beta                        90
_cell_angle_gamma                       90
_symmetry_space_group_name_H-M          'P 1'
_symmetry_int_tables_number             1
loop_
  _symmetry_equiv_pos_as_xyz
         'x, y, z' 
loop_
  _atom_site_label
  _atom_site_occupancy
  _atom_site_fract_x
  _atom_site_fract_y
  _atom_site_fract_z
  _atom_site_thermal_displace_type
  _atom_site_B_iso_or_equiv
  _atom_site_type_symbol
  _atom_site_charge
         C1        1.0000    0.43124   0.54092   0.12120   Biso      1.000     C          -0.136508           
         C2        1.0000    0.06876   0.54092   0.62880   Biso      1.000     C          -0.136508           
         C3        1.0000    0.93124   0.04092   0.73750   Biso      1.000     C          -0.028637           
         C4        1.0000    0.00000   0.00000   0.43690   Biso      1.000     C          0.065323  
         C5        1.0000    0.00000   0.00000   0.20440   Biso      1.000     C          -0.09364299999999999          
         C6        1.0000    0.86320   0.41180   0.45240   Biso      1.000     C          0.6467    
         C7        1.0000    0.93124   0.45908   0.51250   Biso      1.000     C          -0.028635           
         C8        1.0000    0.93124   0.45908   0.62880   Biso      1.000     C          -0.136498           
         C9        1.0000    0.43124   0.54092   0.23750   Biso      1.000     C          -0.028651           
         C10       1.0000    0.50000   0.50000   0.93690   Biso      1.000     C          0.06532400000000001           
         C11       1.0000    0.50000   0.50000   0.70440   Biso      1.000     C          -0.09364199999999999          
         C12       1.0000    0.36320   0.91180   0.95240   Biso      1.000     C          0.64672   
         C13       1.0000    0.43124   0.95908   0.01250   Biso      1.000     C          -0.02865  
         C14       1.0000    0.43124   0.95908   0.12880   Biso      1.000     C          -0.136508           
         C15       1.0000    0.86320   0.08820   0.79760   Biso      1.000     C          0.6467    
         C16       1.0000    0.56876   0.45908   0.12120   Biso      1.000     C          -0.136498           
         C17       1.0000    0.91180   0.36320   0.04760   Biso      1.000     C          0.6467    
         C18       1.0000    0.95908   0.43124   0.98750   Biso      1.000     C          -0.028635           
         C19       1.0000    0.95908   0.43124   0.87120   Biso      1.000     C          -0.136498           
         C20       1.0000    0.50000   0.50000   0.06310   Biso      1.000     C          0.065322  
         C21       1.0000    0.04092   0.56876   0.87120   Biso      1.000     C          -0.136508           
         C22       1.0000    0.04092   0.56876   0.98750   Biso      1.000     C          -0.028651           
         C23       1.0000    0.41180   0.86320   0.54760   Biso      1.000     C          0.6467189999999999  
         C24       1.0000    0.45908   0.93124   0.48750   Biso      1.000     C          -0.02865  
         C25       1.0000    0.45908   0.93124   0.37120   Biso      1.000     C          -0.136508           
         C26       1.0000    0.08820   0.63680   0.04760   Biso      1.000     C          0.64672   
         C27       1.0000    0.13680   0.91180   0.79760   Biso      1.000     C          0.6467189999999999  
         C28       1.0000    0.06876   0.95908   0.73750   Biso      1.000     C          -0.028651           
         C29       1.0000    0.58820   0.13680   0.54760   Biso      1.000     C          0.6467    
         C30       1.0000    0.54092   0.06876   0.48750   Biso      1.000     C          -0.028635           
         C31       1.0000    0.06876   0.54092   0.51250   Biso      1.000     C          -0.028651           
         C32       1.0000    0.54092   0.06876   0.37120   Biso      1.000     C          -0.136498           
         C33       1.0000    0.13680   0.58820   0.45240   Biso      1.000     C          0.6467189999999999  
         C34       1.0000    0.50000   0.00000   0.18690   Biso      1.000     C          0.065323  
         C35       1.0000    0.50000   0.50000   0.29560   Biso      1.000     C          -0.09364299999999999          
         C36       1.0000    0.58820   0.36320   0.70240   Biso      1.000     C          0.6467    
         C37       1.0000    0.54092   0.43124   0.76250   Biso      1.000     C          -0.028636           
         C38       1.0000    0.54092   0.43124   0.87880   Biso      1.000     C          -0.136499           
         C39       1.0000    0.36320   0.58820   0.29760   Biso      1.000     C          0.6467189999999999  
         C40       1.0000    0.00000   0.00000   0.56310   Biso      1.000     C          0.065323  
         C41       1.0000    0.00000   0.00000   0.79560   Biso      1.000     C          -0.09364299999999999          
         C42       1.0000    0.08820   0.86320   0.20240   Biso      1.000     C          0.6467189999999999  
         C43       1.0000    0.04092   0.93124   0.26250   Biso      1.000     C          -0.028651           
         C44       1.0000    0.04092   0.93124   0.37880   Biso      1.000     C          -0.136509           
         C45       1.0000    0.50000   0.00000   0.31310   Biso      1.000     C          0.065322  
         C46       1.0000    0.50000   0.00000   0.54560   Biso      1.000     C          -0.09364199999999999          
         C47       1.0000    0.91180   0.13680   0.20240   Biso      1.000     C          0.646701  
         C48       1.0000    0.50000   0.00000   0.95440   Biso      1.000     C          -0.093641           
         C49       1.0000    0.06876   0.95908   0.62120   Biso      1.000     C          -0.13651  
         C50       1.0000    0.95908   0.06876   0.37880   Biso      1.000     C          -0.136499           
         C51       1.0000    0.93124   0.04092   0.62120   Biso      1.000     C          -0.136499           
         C52       1.0000    0.56876   0.04092   0.12880   Biso      1.000     C          -0.136498           
         C53       1.0000    0.56876   0.04092   0.01250   Biso      1.000     C          -0.028636           
         C54       1.0000    0.63680   0.08820   0.95240   Biso      1.000     C          0.646701  
         C55       1.0000    0.00000   0.50000   0.45440   Biso      1.000     C          -0.09364199999999999          
         C56       1.0000    0.00000   0.50000   0.68690   Biso      1.000     C          0.065322  
         C57       1.0000    0.95908   0.06876   0.26250   Biso      1.000     C          -0.028637           
         C58       1.0000    0.56876   0.45908   0.23750   Biso      1.000     C          -0.028636           
         C59       1.0000    0.45908   0.56876   0.76250   Biso      1.000     C          -0.028651           
         C60       1.0000    0.41180   0.63680   0.70240   Biso      1.000     C          0.64672   
         C61       1.0000    0.00000   0.50000   0.04560   Biso      1.000     C          -0.09364199999999999          
         C62       1.0000    0.00000   0.50000   0.81310   Biso      1.000     C          0.065322  
         C63       1.0000    0.63680   0.41180   0.29760   Biso      1.000     C          0.646701  
         C64       1.0000    0.45908   0.56876   0.87880   Biso      1.000     C          -0.136509           
         H1        1.0000    0.38020   0.57130   0.07810   Biso      1.000     H          0.115871  
         H2        1.0000    0.61980   0.42870   0.07810   Biso      1.000     H          0.115879  
         H3        1.0000    0.07130   0.61980   0.82810   Biso      1.000     H          0.115871  
         H4        1.0000    0.82260   0.25000   0.62500   Biso      1.000     H          0.392005  
         H5        1.0000    0.32260   0.75000   0.12500   Biso      1.000     H          0.39202800000000004           
         H6        1.0000    0.67740   0.25000   0.12500   Biso      1.000     H          0.392006  
         H7        1.0000    0.17740   0.75000   0.62500   Biso      1.000     H          0.392027  
         H8        1.0000    0.75000   0.32260   0.87500   Biso      1.000     H          0.392005  
         H9        1.0000    0.25000   0.82260   0.37500   Biso      1.000     H          0.392027  
         H10       1.0000    0.75000   0.17740   0.37500   Biso      1.000     H          0.392006  
         H11       1.0000    0.25000   0.67740   0.87500   Biso      1.000     H          0.39202800000000004           
         H12       1.0000    0.00000   0.00000   0.11810   Biso      1.000     H          0.134851  
         H13       1.0000    0.50000   0.00000   0.86810   Biso      1.000     H          0.134852  
         H14       1.0000    0.00000   0.50000   0.36810   Biso      1.000     H          0.134852  
         H15       1.0000    0.00000   0.50000   0.13190   Biso      1.000     H          0.134853  
         H16       1.0000    0.50000   0.00000   0.63190   Biso      1.000     H          0.134852  
         H17       1.0000    0.00000   0.00000   0.88190   Biso      1.000     H          0.134851  
         H18       1.0000    0.11980   0.92870   0.57810   Biso      1.000     H          0.11587   
         H19       1.0000    0.50000   0.50000   0.61810   Biso      1.000     H          0.134852  
         H20       1.0000    0.50000   0.50000   0.38190   Biso      1.000     H          0.134852  
         H21       1.0000    0.92870   0.38020   0.82810   Biso      1.000     H          0.115879  
         H22       1.0000    0.42870   0.61980   0.92190   Biso      1.000     H          0.115871  
         H23       1.0000    0.88020   0.42870   0.67190   Biso      1.000     H          0.115879  
         H24       1.0000    0.42870   0.88020   0.32810   Biso      1.000     H          0.115871  
         H25       1.0000    0.57130   0.11980   0.32810   Biso      1.000     H          0.115879  
         H26       1.0000    0.92870   0.11980   0.42190   Biso      1.000     H          0.115879  
         H27       1.0000    0.61980   0.07130   0.17190   Biso      1.000     H          0.115879  
         H28       1.0000    0.11980   0.57130   0.67190   Biso      1.000     H          0.115871  
         H29       1.0000    0.07130   0.88020   0.42190   Biso      1.000     H          0.11587   
         H30       1.0000    0.38020   0.92870   0.17190   Biso      1.000     H          0.115871  
         H31       1.0000    0.88020   0.07130   0.57810   Biso      1.000     H          0.115879  
         H32       1.0000    0.57130   0.38020   0.92190   Biso      1.000     H          0.115879  
         O1        1.0000    0.25000   0.74860   0.87500   Biso      1.000     O          -0.975409           
         O2        1.0000    0.88100   0.38130   0.14220   Biso      1.000     O          -0.59709  
         O3        1.0000    0.78830   0.40320   0.49700   Biso      1.000     O          -0.618442           
         O4        1.0000    0.88130   0.38100   0.35780   Biso      1.000     O          -0.59709  
         O5        1.0000    0.28830   0.90320   0.99700   Biso      1.000     O          -0.618437           
         O6        1.0000    0.38130   0.88100   0.85780   Biso      1.000     O          -0.5970770000000001           
         O7        1.0000    0.71170   0.09680   0.99700   Biso      1.000     O          -0.6184430000000001           
         O8        1.0000    0.11870   0.61900   0.35780   Biso      1.000     O          -0.597078           
         O9        1.0000    0.75000   0.24860   0.37500   Biso      1.000     O          -0.975407           
         O10       1.0000    0.61870   0.11900   0.85780   Biso      1.000     O          -0.59709  
         O11       1.0000    0.40320   0.71170   0.74700   Biso      1.000     O          -0.618436           
         O12       1.0000    0.38100   0.61870   0.60780   Biso      1.000     O          -0.597078           
         O13       1.0000    0.90320   0.21170   0.24700   Biso      1.000     O          -0.6184430000000001           
         O14       1.0000    0.88100   0.11870   0.10780   Biso      1.000     O          -0.59709  
         O15       1.0000    0.09680   0.78830   0.24700   Biso      1.000     O          -0.618438           
         O16       1.0000    0.11900   0.88130   0.10780   Biso      1.000     O          -0.597078           
         O17       1.0000    0.59680   0.28830   0.74700   Biso      1.000     O          -0.618442           
         O18       1.0000    0.21170   0.59680   0.49700   Biso      1.000     O          -0.618436           
         O19       1.0000    0.90320   0.28830   0.00300   Biso      1.000     O          -0.6184430000000001           
         O20       1.0000    0.61870   0.38100   0.39220   Biso      1.000     O          -0.597091           
         O21       1.0000    0.28830   0.59680   0.25300   Biso      1.000     O          -0.618436           
         O22       1.0000    0.71170   0.40320   0.25300   Biso      1.000     O          -0.618444           
         O23       1.0000    0.38130   0.61900   0.39220   Biso      1.000     O          -0.597078           
         O24       1.0000    0.78830   0.09680   0.75300   Biso      1.000     O          -0.618442           
         O25       1.0000    0.88130   0.11900   0.89220   Biso      1.000     O          -0.597089           
         O26       1.0000    0.11870   0.88100   0.89220   Biso      1.000     O          -0.597078           
         O27       1.0000    0.21170   0.90320   0.75300   Biso      1.000     O          -0.618438           
         O28       1.0000    0.09680   0.71170   0.00300   Biso      1.000     O          -0.618437           
         O29       1.0000    0.11900   0.61870   0.14220   Biso      1.000     O          -0.597078           
         O30       1.0000    0.59680   0.21170   0.50300   Biso      1.000     O          -0.6184430000000001           
         O31       1.0000    0.25000   0.75140   0.37500   Biso      1.000     O          -0.975406           
         O32       1.0000    0.61900   0.38130   0.60780   Biso      1.000     O          -0.59709  
         O33       1.0000    0.75140   0.25000   0.62500   Biso      1.000     O          -0.975411           
         O34       1.0000    0.61900   0.11870   0.64220   Biso      1.000     O          -0.597089           
         O35       1.0000    0.25140   0.75000   0.12500   Biso      1.000     O          -0.97541  
         O36       1.0000    0.74860   0.25000   0.12500   Biso      1.000     O          -0.9754079999999999           
         O37       1.0000    0.40320   0.78830   0.50300   Biso      1.000     O          -0.618437           
         O38       1.0000    0.24860   0.75000   0.62500   Biso      1.000     O          -0.975406           
         O39       1.0000    0.38100   0.88130   0.64220   Biso      1.000     O          -0.597078           
         O40       1.0000    0.75000   0.25140   0.87500   Biso      1.000     O          -0.975406           
         V1        1.0000    0.68671   0.18671   0.75000   Biso      1.000     V          1.713012  
         V2        1.0000    0.81329   0.31329   0.25000   Biso      1.000     V          1.713012  
         V3        1.0000    0.81329   0.18671   0.00000   Biso      1.000     V          1.71301   
         V4        1.0000    0.18671   0.81329   0.00000   Biso      1.000     V          1.713054  
         V5        1.0000    0.68671   0.31329   0.50000   Biso      1.000     V          1.713012  
         V6        1.0000    0.31329   0.81329   0.75000   Biso      1.000     V          1.7130470000000002  
         V7        1.0000    0.18671   0.68671   0.25000   Biso      1.000     V          1.713048  
         V8        1.0000    0.31329   0.68671   0.50000   Biso      1.000     V          1.713048 