
##########################################################################
#               Crystallographic Information Format file
#               Produced by PyCifRW module
#
#  This is a CIF file.  CIF has been adopted by the International
#  Union of Crystallography as the standard for data archiving and
#  transmission.
#
#  For information on this file format, follow the CIF links at
#  http://www.iucr.org
##########################################################################

data_image0

_cell_length_a                          15.0418
_cell_length_b                          15.0418
_cell_length_c                          11.9611
_cell_angle_alpha                       90
_cell_angle_beta                        90
_cell_angle_gamma                       90
_symmetry_space_group_name_H-M          'P 1'
_symmetry_int_tables_number             1
loop_
  _symmetry_equiv_pos_as_xyz
         'x, y, z' 
loop_
  _atom_site_label
  _atom_site_occupancy
  _atom_site_fract_x
  _atom_site_fract_y
  _atom_site_fract_z
  _atom_site_thermal_displace_type
  _atom_site_B_iso_or_equiv
  _atom_site_type_symbol
  _atom_site_charge
         C1        1.0000    0.25330   0.25050   0.08080   Biso      1.000     C          -0.10542  
         C2        1.0000    0.67960   0.70550   0.63750   Biso      1.000     C          -0.007835           
         C3        1.0000    0.70550   0.67960   0.11250   Biso      1.000     C          -0.008631           
         C4        1.0000    0.74390   0.74970   0.81226   Biso      1.000     C          0.072263  
         C5        1.0000    0.79380   0.81100   0.99440   Biso      1.000     C          -0.13449  
         C6        1.0000    0.67820   0.70560   0.75320   Biso      1.000     C          -0.131352           
         C7        1.0000    0.61230   0.66020   0.57690   Biso      1.000     C          0.632677  
         C8        1.0000    0.74950   0.74670   0.16920   Biso      1.000     C          -0.10541800000000001          
         C9        1.0000    0.61230   0.33980   0.92310   Biso      1.000     C          0.6362439999999999  
         C10       1.0000    0.67820   0.29440   0.74680   Biso      1.000     C          -0.129906           
         C11       1.0000    0.79370   0.81240   0.11010   Biso      1.000     C          -0.010858           
         C12       1.0000    0.74390   0.25030   0.68774   Biso      1.000     C          0.072401  
         C13       1.0000    0.11880   0.16120   0.08180   Biso      1.000     C          0.65228   
         C14       1.0000    0.18760   0.20630   0.13990   Biso      1.000     C          -0.010856999999999999         
         C15       1.0000    0.25610   0.74970   0.18774   Biso      1.000     C          0.072484  
         C16       1.0000    0.18900   0.20620   0.25560   Biso      1.000     C          -0.13449  
         C17       1.0000    0.32040   0.29450   0.13750   Biso      1.000     C          -0.008628           
         C18       1.0000    0.83880   0.88120   0.16820   Biso      1.000     C          0.65228   
         C19       1.0000    0.81240   0.20630   0.86010   Biso      1.000     C          -0.010668           
         C20       1.0000    0.29450   0.32040   0.61250   Biso      1.000     C          -0.007835           
         C21       1.0000    0.20620   0.18900   0.49440   Biso      1.000     C          -0.135952           
         C22       1.0000    0.25050   0.25330   0.66920   Biso      1.000     C          -0.10604000000000001          
         C23       1.0000    0.20630   0.18760   0.61010   Biso      1.000     C          -0.010954           
         C24       1.0000    0.16120   0.11880   0.66820   Biso      1.000     C          0.652493  
         C25       1.0000    0.81100   0.79380   0.75560   Biso      1.000     C          -0.13594900000000001          
         C26       1.0000    0.74670   0.25050   0.91920   Biso      1.000     C          -0.105315           
         C27       1.0000    0.67960   0.29450   0.86250   Biso      1.000     C          -0.008631           
         C28       1.0000    0.33980   0.38770   0.67310   Biso      1.000     C          0.632677  
         C29       1.0000    0.38770   0.33980   0.07690   Biso      1.000     C          0.634158  
         C30       1.0000    0.32180   0.29440   0.25320   Biso      1.000     C          -0.130689           
         C31       1.0000    0.88120   0.16120   0.91820   Biso      1.000     C          0.652149  
         C32       1.0000    0.25610   0.25030   0.31226   Biso      1.000     C          0.072685  
         C33       1.0000    0.81100   0.20620   0.74440   Biso      1.000     C          -0.134215           
         C34       1.0000    0.25030   0.25610   0.43774   Biso      1.000     C          0.072264  
         C35       1.0000    0.74670   0.74950   0.58080   Biso      1.000     C          -0.10603900000000001          
         C36       1.0000    0.88120   0.83880   0.58180   Biso      1.000     C          0.652492  
         C37       1.0000    0.83880   0.11880   0.33180   Biso      1.000     C          0.652149  
         C38       1.0000    0.79370   0.18760   0.38990   Biso      1.000     C          -0.010668           
         C39       1.0000    0.74950   0.25330   0.33080   Biso      1.000     C          -0.105314           
         C40       1.0000    0.79380   0.18900   0.50560   Biso      1.000     C          -0.134216           
         C41       1.0000    0.70550   0.32040   0.38750   Biso      1.000     C          -0.008631           
         C42       1.0000    0.32040   0.70550   0.36250   Biso      1.000     C          -0.0076879999999999995        
         C43       1.0000    0.74970   0.25610   0.56226   Biso      1.000     C          0.072404  
         C44       1.0000    0.18900   0.79380   0.24440   Biso      1.000     C          -0.13552899999999998          
         C45       1.0000    0.70560   0.32180   0.50320   Biso      1.000     C          -0.129906           
         C46       1.0000    0.66020   0.38770   0.32690   Biso      1.000     C          0.636243  
         C47       1.0000    0.25330   0.74950   0.41920   Biso      1.000     C          -0.10558699999999999          
         C48       1.0000    0.18760   0.79370   0.36010   Biso      1.000     C          -0.011132           
         C49       1.0000    0.11880   0.83880   0.41820   Biso      1.000     C          0.652542  
         C50       1.0000    0.81240   0.79370   0.63990   Biso      1.000     C          -0.010953000000000001         
         C51       1.0000    0.38770   0.66020   0.42310   Biso      1.000     C          0.633536  
         C52       1.0000    0.32180   0.70560   0.24680   Biso      1.000     C          -0.131499           
         C53       1.0000    0.20630   0.81240   0.88990   Biso      1.000     C          -0.011132           
         C54       1.0000    0.74970   0.74390   0.93774   Biso      1.000     C          0.072685  
         C55       1.0000    0.70560   0.67820   0.99680   Biso      1.000     C          -0.130689           
         C56       1.0000    0.66020   0.61230   0.17310   Biso      1.000     C          0.634159  
         C57       1.0000    0.33980   0.61230   0.82690   Biso      1.000     C          0.633534  
         C58       1.0000    0.16120   0.88120   0.83180   Biso      1.000     C          0.652543  
         C59       1.0000    0.29440   0.67820   0.00320   Biso      1.000     C          -0.131499           
         C60       1.0000    0.29450   0.67960   0.88750   Biso      1.000     C          -0.007687           
         C61       1.0000    0.20620   0.81100   0.00560   Biso      1.000     C          -0.13553199999999999          
         C62       1.0000    0.25050   0.74670   0.83080   Biso      1.000     C          -0.10558699999999999          
         C63       1.0000    0.25030   0.74390   0.06226   Biso      1.000     C          0.072486  
         C64       1.0000    0.29440   0.32180   0.49680   Biso      1.000     C          -0.131354           
         H1        1.0000    0.67600   0.63320   0.95870   Biso      1.000     H          0.139279  
         H2        1.0000    0.32400   0.36680   0.45870   Biso      1.000     H          0.139308  
         H3        1.0000    0.36680   0.67600   0.20870   Biso      1.000     H          0.139149  
         H4        1.0000    0.82340   0.85510   0.95470   Biso      1.000     H          0.134664  
         H5        1.0000    0.74940   0.74770   0.24690   Biso      1.000     H          0.13828   
         H6        1.0000    0.25230   0.74940   0.49690   Biso      1.000     H          0.138295  
         H7        1.0000    0.25060   0.25230   0.74690   Biso      1.000     H          0.13814400000000002           
         H8        1.0000    0.74770   0.25060   0.99690   Biso      1.000     H          0.138207  
         H9        1.0000    0.74940   0.25230   0.25310   Biso      1.000     H          0.138207  
         H10       1.0000    0.82340   0.14490   0.54530   Biso      1.000     H          0.134756  
         H11       1.0000    0.67600   0.36680   0.54130   Biso      1.000     H          0.139502  
         H12       1.0000    0.25060   0.74770   0.75310   Biso      1.000     H          0.138295  
         H13       1.0000    0.17660   0.85510   0.04530   Biso      1.000     H          0.134496  
         H14       1.0000    0.32400   0.63320   0.04130   Biso      1.000     H          0.139149  
         H15       1.0000    0.17660   0.14490   0.45470   Biso      1.000     H          0.134467  
         H16       1.0000    0.63320   0.32400   0.70870   Biso      1.000     H          0.139502  
         H17       1.0000    0.74770   0.74940   0.50310   Biso      1.000     H          0.13814500000000002           
         H18       1.0000    0.14490   0.82340   0.20470   Biso      1.000     H          0.134496  
         H19       1.0000    0.63320   0.67600   0.79130   Biso      1.000     H          0.139308  
         H20       1.0000    0.36680   0.32400   0.29130   Biso      1.000     H          0.13928   
         H21       1.0000    0.85510   0.17660   0.70470   Biso      1.000     H          0.134756  
         H22       1.0000    0.25230   0.25060   0.00310   Biso      1.000     H          0.138281  
         H23       1.0000    0.14490   0.17660   0.29530   Biso      1.000     H          0.134664  
         H24       1.0000    0.85510   0.82340   0.79530   Biso      1.000     H          0.134467  
         O1        1.0000    0.51220   0.50000   0.75000   Biso      1.000     O          -0.873481           
         O2        1.0000    0.96050   0.15610   0.87710   Biso      1.000     O          -0.593874           
         O3        1.0000    0.48780   0.50000   0.25000   Biso      1.000     O          -0.869293           
         O4        1.0000    0.00000   0.02340   0.00000   Biso      1.000     O          -0.908684           
         O5        1.0000    0.02340   0.00000   0.75000   Biso      1.000     O          -0.9088209999999999           
         O6        1.0000    0.86640   0.12390   0.01390   Biso      1.000     O          -0.600585           
         O7        1.0000    0.46380   0.64270   0.37770   Biso      1.000     O          -0.604549           
         O8        1.0000    0.37490   0.63520   0.52530   Biso      1.000     O          -0.574449           
         O9        1.0000    0.62510   0.36480   0.02530   Biso      1.000     O          -0.572725           
         O10       1.0000    0.53620   0.35730   0.87770   Biso      1.000     O          -0.602876           
         O11       1.0000    0.00000   0.97660   0.50000   Biso      1.000     O          -0.9088209999999999           
         O12       1.0000    0.97660   0.00000   0.25000   Biso      1.000     O          -0.908684           
         O13       1.0000    0.87610   0.13360   0.23610   Biso      1.000     O          -0.600585           
         O14       1.0000    0.13360   0.87610   0.51390   Biso      1.000     O          -0.600429           
         O15       1.0000    0.84390   0.03950   0.37290   Biso      1.000     O          -0.593874           
         O16       1.0000    0.64270   0.46380   0.37230   Biso      1.000     O          -0.602871           
         O17       1.0000    0.63520   0.37490   0.22470   Biso      1.000     O          -0.5727220000000001           
         O18       1.0000    0.12390   0.86640   0.73610   Biso      1.000     O          -0.60043  
         O19       1.0000    0.15610   0.96050   0.87290   Biso      1.000     O          -0.5938399999999999           
         O20       1.0000    0.35730   0.53620   0.87230   Biso      1.000     O          -0.604549           
         O21       1.0000    0.36480   0.62510   0.72470   Biso      1.000     O          -0.574449           
         O22       1.0000    0.03950   0.84390   0.37710   Biso      1.000     O          -0.5938399999999999           
         O23       1.0000    0.96050   0.84390   0.62290   Biso      1.000     O          -0.593775           
         O24       1.0000    0.53620   0.64270   0.62230   Biso      1.000     O          -0.6012109999999999           
         O25       1.0000    0.62510   0.63520   0.47470   Biso      1.000     O          -0.574068           
         O26       1.0000    0.13360   0.12390   0.98610   Biso      1.000     O          -0.600482           
         O27       1.0000    0.86640   0.87610   0.48610   Biso      1.000     O          -0.600658           
         O28       1.0000    0.46380   0.35730   0.12230   Biso      1.000     O          -0.602478           
         O29       1.0000    0.63520   0.62510   0.27530   Biso      1.000     O          -0.570175           
         O30       1.0000    0.64270   0.53620   0.12770   Biso      1.000     O          -0.60248  
         O31       1.0000    0.84390   0.96050   0.12710   Biso      1.000     O          -0.5939260000000001           
         O32       1.0000    0.87610   0.86640   0.26390   Biso      1.000     O          -0.600482           
         O33       1.0000    0.03950   0.15610   0.12290   Biso      1.000     O          -0.5939260000000001           
         O34       1.0000    0.35730   0.46380   0.62770   Biso      1.000     O          -0.601213           
         O35       1.0000    0.36480   0.37490   0.77530   Biso      1.000     O          -0.57407  
         O36       1.0000    0.50000   0.48780   0.50000   Biso      1.000     O          -0.873481           
         O37       1.0000    0.15610   0.03950   0.62710   Biso      1.000     O          -0.593775           
         O38       1.0000    0.12390   0.13360   0.76390   Biso      1.000     O          -0.600658           
         O39       1.0000    0.37490   0.36480   0.97470   Biso      1.000     O          -0.570171           
         O40       1.0000    0.50000   0.51220   0.00000   Biso      1.000     O          -0.869293           
         V1        1.0000    0.06400   0.06400   0.87500   Biso      1.000     V          1.9072060000000002  
         V2        1.0000    0.06400   0.93600   0.62500   Biso      1.000     V          1.907402  
         V3        1.0000    0.93600   0.06400   0.12500   Biso      1.000     V          1.907002  
         V4        1.0000    0.55600   0.55600   0.37500   Biso      1.000     V          1.8528419999999999  
         V5        1.0000    0.44400   0.44400   0.87500   Biso      1.000     V          1.85284   
         V6        1.0000    0.44400   0.55600   0.62500   Biso      1.000     V          1.853652  
         V7        1.0000    0.55600   0.44400   0.12500   Biso      1.000     V          1.848452  
         V8        1.0000    0.93600   0.93600   0.37500   Biso      1.000     V          1.9072060000000002 