
##########################################################################
#               Crystallographic Information Format file
#               Produced by PyCifRW module
#
#  This is a CIF file.  CIF has been adopted by the International
#  Union of Crystallography as the standard for data archiving and
#  transmission.
#
#  For information on this file format, follow the CIF links at
#  http://www.iucr.org
##########################################################################

data_image0

_cell_length_a                          15.1658
_cell_length_b                          15.1658
_cell_length_c                          12.0568
_cell_angle_alpha                       90
_cell_angle_beta                        90
_cell_angle_gamma                       90
_symmetry_space_group_name_H-M          'P 1'
_symmetry_int_tables_number             1
loop_
  _symmetry_equiv_pos_as_xyz
         'x, y, z' 
loop_
  _atom_site_label
  _atom_site_occupancy
  _atom_site_fract_x
  _atom_site_fract_y
  _atom_site_fract_z
  _atom_site_thermal_displace_type
  _atom_site_B_iso_or_equiv
  _atom_site_type_symbol
  _atom_site_charge
         C1        1.0000    0.43165   0.54138   0.12110   Biso      1.000     C          -0.13926  
         C2        1.0000    0.06835   0.54138   0.62890   Biso      1.000     C          -0.13926  
         C3        1.0000    0.93165   0.04138   0.73720   Biso      1.000     C          -0.023394           
         C4        1.0000    0.00000   0.00000   0.43690   Biso      1.000     C          0.066113  
         C5        1.0000    0.00000   0.00000   0.20480   Biso      1.000     C          -0.088511           
         C6        1.0000    0.86310   0.41130   0.45240   Biso      1.000     C          0.633055  
         C7        1.0000    0.93165   0.45862   0.51280   Biso      1.000     C          -0.023396           
         C8        1.0000    0.93165   0.45862   0.62890   Biso      1.000     C          -0.1393   
         C9        1.0000    0.43165   0.54138   0.23720   Biso      1.000     C          -0.023337           
         C10       1.0000    0.50000   0.50000   0.93690   Biso      1.000     C          0.066114  
         C11       1.0000    0.50000   0.50000   0.70480   Biso      1.000     C          -0.088512           
         C12       1.0000    0.36310   0.91130   0.95240   Biso      1.000     C          0.632987  
         C13       1.0000    0.43165   0.95862   0.01280   Biso      1.000     C          -0.023335           
         C14       1.0000    0.43165   0.95862   0.12890   Biso      1.000     C          -0.13926  
         C15       1.0000    0.86310   0.08870   0.79760   Biso      1.000     C          0.633058  
         C16       1.0000    0.56835   0.45862   0.12110   Biso      1.000     C          -0.139298           
         C17       1.0000    0.91130   0.36310   0.04760   Biso      1.000     C          0.633057  
         C18       1.0000    0.95862   0.43165   0.98720   Biso      1.000     C          -0.023394           
         C19       1.0000    0.95862   0.43165   0.87110   Biso      1.000     C          -0.139298           
         C20       1.0000    0.50000   0.50000   0.06310   Biso      1.000     C          0.066108  
         C21       1.0000    0.04138   0.56835   0.87110   Biso      1.000     C          -0.139259           
         C22       1.0000    0.04138   0.56835   0.98720   Biso      1.000     C          -0.023337           
         C23       1.0000    0.41130   0.86310   0.54760   Biso      1.000     C          0.632987  
         C24       1.0000    0.45862   0.93165   0.48720   Biso      1.000     C          -0.023335           
         C25       1.0000    0.45862   0.93165   0.37110   Biso      1.000     C          -0.13926  
         C26       1.0000    0.08870   0.63690   0.04760   Biso      1.000     C          0.632989  
         C27       1.0000    0.13690   0.91130   0.79760   Biso      1.000     C          0.632989  
         C28       1.0000    0.06835   0.95862   0.73720   Biso      1.000     C          -0.023336           
         C29       1.0000    0.58870   0.13690   0.54760   Biso      1.000     C          0.633056  
         C30       1.0000    0.54138   0.06835   0.48720   Biso      1.000     C          -0.023396           
         C31       1.0000    0.06835   0.54138   0.51280   Biso      1.000     C          -0.023337           
         C32       1.0000    0.54138   0.06835   0.37110   Biso      1.000     C          -0.139299           
         C33       1.0000    0.13690   0.58870   0.45240   Biso      1.000     C          0.632989  
         C34       1.0000    0.50000   0.00000   0.18690   Biso      1.000     C          0.066111  
         C35       1.0000    0.50000   0.50000   0.29520   Biso      1.000     C          -0.088512           
         C36       1.0000    0.58870   0.36310   0.70240   Biso      1.000     C          0.633058  
         C37       1.0000    0.54138   0.43165   0.76280   Biso      1.000     C          -0.023394           
         C38       1.0000    0.54138   0.43165   0.87890   Biso      1.000     C          -0.1393   
         C39       1.0000    0.36310   0.58870   0.29760   Biso      1.000     C          0.632988  
         C40       1.0000    0.00000   0.00000   0.56310   Biso      1.000     C          0.066113  
         C41       1.0000    0.00000   0.00000   0.79520   Biso      1.000     C          -0.088512           
         C42       1.0000    0.08870   0.86310   0.20240   Biso      1.000     C          0.632987  
         C43       1.0000    0.04138   0.93165   0.26280   Biso      1.000     C          -0.023335           
         C44       1.0000    0.04138   0.93165   0.37890   Biso      1.000     C          -0.139262           
         C45       1.0000    0.50000   0.00000   0.31310   Biso      1.000     C          0.066109  
         C46       1.0000    0.50000   0.00000   0.54520   Biso      1.000     C          -0.088513           
         C47       1.0000    0.91130   0.13690   0.20240   Biso      1.000     C          0.633057  
         C48       1.0000    0.50000   0.00000   0.95480   Biso      1.000     C          -0.088512           
         C49       1.0000    0.06835   0.95862   0.62110   Biso      1.000     C          -0.139263           
         C50       1.0000    0.95862   0.06835   0.37890   Biso      1.000     C          -0.1393   
         C51       1.0000    0.93165   0.04138   0.62110   Biso      1.000     C          -0.1393   
         C52       1.0000    0.56835   0.04138   0.12890   Biso      1.000     C          -0.139299           
         C53       1.0000    0.56835   0.04138   0.01280   Biso      1.000     C          -0.023396           
         C54       1.0000    0.63690   0.08870   0.95240   Biso      1.000     C          0.633058  
         C55       1.0000    0.00000   0.50000   0.45480   Biso      1.000     C          -0.088513           
         C56       1.0000    0.00000   0.50000   0.68690   Biso      1.000     C          0.066109  
         C57       1.0000    0.95862   0.06835   0.26280   Biso      1.000     C          -0.023396           
         C58       1.0000    0.56835   0.45862   0.23720   Biso      1.000     C          -0.023396           
         C59       1.0000    0.45862   0.56835   0.76280   Biso      1.000     C          -0.023338           
         C60       1.0000    0.41130   0.63690   0.70240   Biso      1.000     C          0.632991  
         C61       1.0000    0.00000   0.50000   0.04520   Biso      1.000     C          -0.088512           
         C62       1.0000    0.00000   0.50000   0.81310   Biso      1.000     C          0.066109  
         C63       1.0000    0.63690   0.41130   0.29760   Biso      1.000     C          0.633057  
         C64       1.0000    0.45862   0.56835   0.87890   Biso      1.000     C          -0.139263           
         H1        1.0000    0.38040   0.57240   0.07760   Biso      1.000     H          0.107966  
         H2        1.0000    0.61960   0.42760   0.07760   Biso      1.000     H          0.107932  
         H3        1.0000    0.07240   0.61960   0.82760   Biso      1.000     H          0.107966  
         H4        1.0000    0.82180   0.25000   0.62500   Biso      1.000     H          0.396053  
         H5        1.0000    0.32180   0.75000   0.12500   Biso      1.000     H          0.395952  
         H6        1.0000    0.67820   0.25000   0.12500   Biso      1.000     H          0.396052  
         H7        1.0000    0.17820   0.75000   0.62500   Biso      1.000     H          0.39595   
         H8        1.0000    0.75000   0.32180   0.87500   Biso      1.000     H          0.396051  
         H9        1.0000    0.25000   0.82180   0.37500   Biso      1.000     H          0.395948  
         H10       1.0000    0.75000   0.17820   0.37500   Biso      1.000     H          0.396051  
         H11       1.0000    0.25000   0.67820   0.87500   Biso      1.000     H          0.395954  
         H12       1.0000    0.00000   0.00000   0.11770   Biso      1.000     H          0.138259  
         H13       1.0000    0.50000   0.00000   0.86770   Biso      1.000     H          0.138258  
         H14       1.0000    0.00000   0.50000   0.36770   Biso      1.000     H          0.138258  
         H15       1.0000    0.00000   0.50000   0.13230   Biso      1.000     H          0.138259  
         H16       1.0000    0.50000   0.00000   0.63230   Biso      1.000     H          0.138259  
         H17       1.0000    0.00000   0.00000   0.88230   Biso      1.000     H          0.13826   
         H18       1.0000    0.11960   0.92760   0.57760   Biso      1.000     H          0.107967  
         H19       1.0000    0.50000   0.50000   0.61770   Biso      1.000     H          0.138259  
         H20       1.0000    0.50000   0.50000   0.38230   Biso      1.000     H          0.138259  
         H21       1.0000    0.92760   0.38040   0.82760   Biso      1.000     H          0.107932  
         H22       1.0000    0.42760   0.61960   0.92240   Biso      1.000     H          0.107967  
         H23       1.0000    0.88040   0.42760   0.67240   Biso      1.000     H          0.107932  
         H24       1.0000    0.42760   0.88040   0.32760   Biso      1.000     H          0.107966  
         H25       1.0000    0.57240   0.11960   0.32760   Biso      1.000     H          0.107932  
         H26       1.0000    0.92760   0.11960   0.42240   Biso      1.000     H          0.107932  
         H27       1.0000    0.61960   0.07240   0.17240   Biso      1.000     H          0.107933  
         H28       1.0000    0.11960   0.57240   0.67240   Biso      1.000     H          0.107966  
         H29       1.0000    0.07240   0.88040   0.42240   Biso      1.000     H          0.107966  
         H30       1.0000    0.38040   0.92760   0.17240   Biso      1.000     H          0.107967  
         H31       1.0000    0.88040   0.07240   0.57760   Biso      1.000     H          0.107933  
         H32       1.0000    0.57240   0.38040   0.92240   Biso      1.000     H          0.107933  
         O1        1.0000    0.25000   0.74910   0.87500   Biso      1.000     O          -0.965496           
         O2        1.0000    0.88050   0.38140   0.14180   Biso      1.000     O          -0.571376           
         O3        1.0000    0.78850   0.40310   0.49690   Biso      1.000     O          -0.62484  
         O4        1.0000    0.88140   0.38050   0.35820   Biso      1.000     O          -0.571375           
         O5        1.0000    0.28850   0.90310   0.99690   Biso      1.000     O          -0.624862           
         O6        1.0000    0.38140   0.88050   0.85820   Biso      1.000     O          -0.571411           
         O7        1.0000    0.71150   0.09690   0.99690   Biso      1.000     O          -0.624842           
         O8        1.0000    0.11860   0.61950   0.35820   Biso      1.000     O          -0.571412           
         O9        1.0000    0.75000   0.24910   0.37500   Biso      1.000     O          -0.965513           
         O10       1.0000    0.61860   0.11950   0.85820   Biso      1.000     O          -0.571378           
         O11       1.0000    0.40310   0.71150   0.74690   Biso      1.000     O          -0.624864           
         O12       1.0000    0.38050   0.61860   0.60820   Biso      1.000     O          -0.571407           
         O13       1.0000    0.90310   0.21150   0.24690   Biso      1.000     O          -0.624848           
         O14       1.0000    0.88050   0.11860   0.10820   Biso      1.000     O          -0.571381           
         O15       1.0000    0.09690   0.78850   0.24690   Biso      1.000     O          -0.624864           
         O16       1.0000    0.11950   0.88140   0.10820   Biso      1.000     O          -0.571411           
         O17       1.0000    0.59690   0.28850   0.74690   Biso      1.000     O          -0.62485  
         O18       1.0000    0.21150   0.59690   0.49690   Biso      1.000     O          -0.624869           
         O19       1.0000    0.90310   0.28850   0.00310   Biso      1.000     O          -0.624844           
         O20       1.0000    0.61860   0.38050   0.39180   Biso      1.000     O          -0.571381           
         O21       1.0000    0.28850   0.59690   0.25310   Biso      1.000     O          -0.624863           
         O22       1.0000    0.71150   0.40310   0.25310   Biso      1.000     O          -0.624849           
         O23       1.0000    0.38140   0.61950   0.39180   Biso      1.000     O          -0.571411           
         O24       1.0000    0.78850   0.09690   0.75310   Biso      1.000     O          -0.62485  
         O25       1.0000    0.88140   0.11950   0.89180   Biso      1.000     O          -0.57138  
         O26       1.0000    0.11860   0.88050   0.89180   Biso      1.000     O          -0.571409           
         O27       1.0000    0.21150   0.90310   0.75310   Biso      1.000     O          -0.624864           
         O28       1.0000    0.09690   0.71150   0.00310   Biso      1.000     O          -0.624867           
         O29       1.0000    0.11950   0.61860   0.14180   Biso      1.000     O          -0.571412           
         O30       1.0000    0.59690   0.21150   0.50310   Biso      1.000     O          -0.624839           
         O31       1.0000    0.25000   0.75090   0.37500   Biso      1.000     O          -0.965493           
         O32       1.0000    0.61950   0.38140   0.60820   Biso      1.000     O          -0.571379           
         O33       1.0000    0.75090   0.25000   0.62500   Biso      1.000     O          -0.965516           
         O34       1.0000    0.61950   0.11860   0.64180   Biso      1.000     O          -0.571376           
         O35       1.0000    0.25090   0.75000   0.12500   Biso      1.000     O          -0.965498           
         O36       1.0000    0.74910   0.25000   0.12500   Biso      1.000     O          -0.965514           
         O37       1.0000    0.40310   0.78850   0.50310   Biso      1.000     O          -0.624864           
         O38       1.0000    0.24910   0.75000   0.62500   Biso      1.000     O          -0.965495           
         O39       1.0000    0.38050   0.88140   0.64180   Biso      1.000     O          -0.571411           
         O40       1.0000    0.75000   0.25090   0.87500   Biso      1.000     O          -0.965516           
         V1        1.0000    0.69800   0.19800   0.75000   Biso      1.000     V          1.6896    
         V2        1.0000    0.80200   0.30200   0.25000   Biso      1.000     V          1.689591  
         V3        1.0000    0.80200   0.19800   0.00000   Biso      1.000     V          1.689608  
         V4        1.0000    0.19800   0.80200   0.00000   Biso      1.000     V          1.689379  
         V5        1.0000    0.69800   0.30200   0.50000   Biso      1.000     V          1.689604  
         V6        1.0000    0.30200   0.80200   0.75000   Biso      1.000     V          1.68939   
         V7        1.0000    0.19800   0.69800   0.25000   Biso      1.000     V          1.68939   
         V8        1.0000    0.30200   0.69800   0.50000   Biso      1.000     V          1.689375 