
##########################################################################
#               Crystallographic Information Format file
#               Produced by PyCifRW module
#
#  This is a CIF file.  CIF has been adopted by the International
#  Union of Crystallography as the standard for data archiving and
#  transmission.
#
#  For information on this file format, follow the CIF links at
#  http://www.iucr.org
##########################################################################

data_image0

_cell_length_a                          8.1173
_cell_length_b                          8.6088
_cell_length_c                          19.8803
_cell_angle_alpha                       88.2274
_cell_angle_beta                        86.2381
_cell_angle_gamma                       61.8711
_symmetry_space_group_name_H-M          'P 1'
_symmetry_int_tables_number             1
loop_
  _symmetry_equiv_pos_as_xyz
         'x, y, z' 
loop_
  _atom_site_label
  _atom_site_occupancy
  _atom_site_fract_x
  _atom_site_fract_y
  _atom_site_fract_z
  _atom_site_thermal_displace_type
  _atom_site_B_iso_or_equiv
  _atom_site_type_symbol
  _atom_site_charge
         C1        1.0000    0.26490   0.61940   0.69200   Biso      1.000     C          -0.338251           
         C2        1.0000    0.28730   0.28200   0.34460   Biso      1.000     C          -0.335329           
         C3        1.0000    0.12620   0.46640   0.36440   Biso      1.000     C          -0.121012           
         C4        1.0000    0.17380   0.54880   0.42180   Biso      1.000     C          -0.344571           
         C5        1.0000    0.97980   0.27180   0.55680   Biso      1.000     C          0.715399  
         C6        1.0000    0.27130   0.72420   0.62990   Biso      1.000     C          0.6590159999999999  
         C7        1.0000    0.99550   0.27580   0.12990   Biso      1.000     C          0.658519  
         C8        1.0000    0.54600   0.14840   0.10150   Biso      1.000     C          0.708198  
         C9        1.0000    0.43070   0.28200   0.15540   Biso      1.000     C          -0.33523400000000003          
         C10       1.0000    0.40740   0.46640   0.13560   Biso      1.000     C          -0.120898           
         C11       1.0000    0.27740   0.54880   0.07820   Biso      1.000     C          -0.344588           
         C12       1.0000    0.74840   0.27180   0.94320   Biso      1.000     C          0.715306  
         C13       1.0000    0.00450   0.72420   0.87010   Biso      1.000     C          0.658519  
         C14       1.0000    0.11570   0.61940   0.80800   Biso      1.000     C          -0.338725           
         C15       1.0000    0.69440   0.85160   0.60150   Biso      1.000     C          0.7089810000000001  
         C16       1.0000    0.71270   0.71800   0.65540   Biso      1.000     C          -0.33533  
         C17       1.0000    0.87380   0.53360   0.63560   Biso      1.000     C          -0.121012           
         C18       1.0000    0.82620   0.45120   0.57820   Biso      1.000     C          -0.344571           
         C19       1.0000    0.02020   0.72820   0.44320   Biso      1.000     C          0.715399  
         C20       1.0000    0.72870   0.27580   0.37010   Biso      1.000     C          0.659017  
         C21       1.0000    0.73510   0.38060   0.30800   Biso      1.000     C          -0.338251           
         C22       1.0000    0.45400   0.85160   0.89850   Biso      1.000     C          0.708198  
         C23       1.0000    0.56930   0.71800   0.84460   Biso      1.000     C          -0.33523400000000003          
         C24       1.0000    0.59260   0.53360   0.86440   Biso      1.000     C          -0.120898           
         C25       1.0000    0.30560   0.14840   0.39850   Biso      1.000     C          0.7089810000000001  
         C26       1.0000    0.72260   0.45120   0.92180   Biso      1.000     C          -0.344588           
         C27       1.0000    0.25160   0.72820   0.05680   Biso      1.000     C          0.715306  
         C28       1.0000    0.86600   0.26800   0.25000   Biso      1.000     C          -0.133554           
         C29       1.0000    0.13400   0.73200   0.75000   Biso      1.000     C          -0.133554           
         C30       1.0000    0.88430   0.38060   0.19200   Biso      1.000     C          -0.338725           
         H1        1.0000    0.71470   0.44120   0.59200   Biso      1.000     H          0.13681400000000002           
         H2        1.0000    0.52920   0.45620   0.12210   Biso      1.000     H          0.106366  
         H3        1.0000    0.35790   0.54320   0.17460   Biso      1.000     H          0.105002  
         H4        1.0000    0.30860   0.28760   0.16180   Biso      1.000     H          0.13272899999999999           
         H5        1.0000    0.49160   0.24560   0.19770   Biso      1.000     H          0.146677  
         H6        1.0000    0.18150   0.80720   0.76650   Biso      1.000     H          0.106174  
         H7        1.0000    0.22520   0.53480   0.67940   Biso      1.000     H          0.135462  
         H8        1.0000    0.28530   0.55880   0.40800   Biso      1.000     H          0.13681400000000002           
         H9        1.0000    0.32670   0.47060   0.03960   Biso      1.000     H          0.151444  
         H10       1.0000    0.20270   0.47060   0.46040   Biso      1.000     H          0.151773  
         H11       1.0000    0.01460   0.45620   0.37790   Biso      1.000     H          0.10676300000000001           
         H12       1.0000    0.09890   0.54320   0.32540   Biso      1.000     H          0.10421500000000002           
         H13       1.0000    0.40380   0.28760   0.33820   Biso      1.000     H          0.13236900000000001           
         H14       1.0000    0.26280   0.24560   0.30230   Biso      1.000     H          0.14698   
         H15       1.0000    0.39030   0.55380   0.70770   Biso      1.000     H          0.134392  
         H16       1.0000    0.79730   0.52940   0.53960   Biso      1.000     H          0.151773  
         H17       1.0000    0.15590   0.55880   0.09200   Biso      1.000     H          0.13664600000000002           
         H18       1.0000    0.24000   0.53480   0.82060   Biso      1.000     H          0.13597   
         H19       1.0000    0.60970   0.44620   0.29230   Biso      1.000     H          0.134392  
         H20       1.0000    0.77480   0.46520   0.32060   Biso      1.000     H          0.135462  
         H21       1.0000    0.81850   0.19280   0.23350   Biso      1.000     H          0.106174  
         H22       1.0000    0.50840   0.75440   0.80230   Biso      1.000     H          0.146677  
         H23       1.0000    0.98540   0.54380   0.62210   Biso      1.000     H          0.10676300000000001           
         H24       1.0000    0.64210   0.45680   0.82540   Biso      1.000     H          0.105003  
         H25       1.0000    0.47080   0.54380   0.87790   Biso      1.000     H          0.106366  
         H26       1.0000    0.05590   0.55380   0.79230   Biso      1.000     H          0.133948  
         H27       1.0000    0.67330   0.52940   0.96040   Biso      1.000     H          0.151444  
         H28       1.0000    0.94410   0.44620   0.20770   Biso      1.000     H          0.133948  
         H29       1.0000    0.76000   0.46520   0.17940   Biso      1.000     H          0.13597   
         H30       1.0000    0.98870   0.19280   0.26650   Biso      1.000     H          0.105931  
         H31       1.0000    0.90110   0.45680   0.67460   Biso      1.000     H          0.10421500000000002           
         H32       1.0000    0.59620   0.71240   0.66180   Biso      1.000     H          0.13236900000000001           
         H33       1.0000    0.73720   0.75440   0.69770   Biso      1.000     H          0.14698   
         H34       1.0000    0.01130   0.80720   0.73350   Biso      1.000     H          0.105931  
         H35       1.0000    0.84410   0.44120   0.90800   Biso      1.000     H          0.13664600000000002           
         H36       1.0000    0.69140   0.71240   0.83820   Biso      1.000     H          0.13272899999999999           
         Nd1       1.0000    0.28330   0.92460   0.51190   Biso      1.000     Nd          2.076766  
         Nd2       1.0000    0.20790   0.07540   0.01190   Biso      1.000     Nd          2.076291  
         Nd3       1.0000    0.71670   0.07540   0.48810   Biso      1.000     Nd          2.076766  
         Nd4       1.0000    0.79210   0.92460   0.98810   Biso      1.000     Nd          2.076291  
         O1        1.0000    0.38190   0.76840   0.05990   Biso      1.000     O          -0.616264           
         O2        1.0000    0.09470   0.84060   0.03440   Biso      1.000     O          -0.760033           
         O3        1.0000    0.28150   0.90080   0.90570   Biso      1.000     O          -0.617477           
         O4        1.0000    0.53060   0.91040   0.93840   Biso      1.000     O          -0.786567           
         O5        1.0000    0.65430   0.35560   0.42580   Biso      1.000     O          -0.696479           
         O6        1.0000    0.79150   0.11020   0.36650   Biso      1.000     O          -0.630963           
         O7        1.0000    0.84970   0.76840   0.44010   Biso      1.000     O          -0.616585           
         O8        1.0000    0.06470   0.84060   0.46560   Biso      1.000     O          -0.76003  
         O9        1.0000    0.81770   0.90080   0.59430   Biso      1.000     O          -0.617816           
         O10       1.0000    0.55900   0.91040   0.56160   Biso      1.000     O          -0.787079           
         O11       1.0000    0.00990   0.64440   0.92580   Biso      1.000     O          -0.696001           
         O12       1.0000    0.90170   0.88980   0.86650   Biso      1.000     O          -0.630676           
         O13       1.0000    0.61810   0.23160   0.94010   Biso      1.000     O          -0.616264           
         O14       1.0000    0.90530   0.15940   0.96560   Biso      1.000     O          -0.760033           
         O15       1.0000    0.71850   0.09920   0.09430   Biso      1.000     O          -0.617477           
         O16       1.0000    0.46940   0.08960   0.06160   Biso      1.000     O          -0.786567           
         O17       1.0000    0.34570   0.64440   0.57420   Biso      1.000     O          -0.6964779999999999           
         O18       1.0000    0.20850   0.88980   0.63350   Biso      1.000     O          -0.6309640000000001           
         O19       1.0000    0.15030   0.23160   0.55990   Biso      1.000     O          -0.616585           
         O20       1.0000    0.93530   0.15940   0.53440   Biso      1.000     O          -0.76003  
         O21       1.0000    0.18230   0.09920   0.40570   Biso      1.000     O          -0.617816           
         O22       1.0000    0.44100   0.08960   0.43840   Biso      1.000     O          -0.787079           
         O23       1.0000    0.09830   0.11020   0.13350   Biso      1.000     O          -0.630676           
         O24       1.0000    0.99010   0.35560   0.07420   Biso      1.000     O          -0.696001 