
##########################################################################
#               Crystallographic Information Format file
#               Produced by PyCifRW module
#
#  This is a CIF file.  CIF has been adopted by the International
#  Union of Crystallography as the standard for data archiving and
#  transmission.
#
#  For information on this file format, follow the CIF links at
#  http://www.iucr.org
##########################################################################

data_image0

_cell_length_a                          6.7507
_cell_length_b                          16.9798
_cell_length_c                          12.9232
_cell_angle_alpha                       90
_cell_angle_beta                        90
_cell_angle_gamma                       90
_symmetry_space_group_name_H-M          'P 1'
_symmetry_int_tables_number             1
loop_
  _symmetry_equiv_pos_as_xyz
         'x, y, z' 
loop_
  _atom_site_label
  _atom_site_occupancy
  _atom_site_fract_x
  _atom_site_fract_y
  _atom_site_fract_z
  _atom_site_thermal_displace_type
  _atom_site_B_iso_or_equiv
  _atom_site_type_symbol
  _atom_site_charge
         C1        1.0000    0.34020   0.98860   0.92910   Biso      1.000     C          0.177875  
         C2        1.0000    0.34020   0.51140   0.92910   Biso      1.000     C          0.177874  
         C3        1.0000    0.65130   0.55220   0.00450   Biso      1.000     C          -0.197062           
         C4        1.0000    0.84870   0.05220   0.50450   Biso      1.000     C          -0.197063           
         C5        1.0000    0.50750   0.63920   0.87110   Biso      1.000     C          0.634052  
         C6        1.0000    0.16900   0.51850   0.85350   Biso      1.000     C          -0.524781           
         C7        1.0000    0.15980   0.01140   0.42910   Biso      1.000     C          0.177874  
         C8        1.0000    0.00200   0.06600   0.43630   Biso      1.000     C          -0.086903           
         C9        1.0000    0.99800   0.56600   0.56370   Biso      1.000     C          -0.086908           
         C10       1.0000    0.84020   0.51140   0.57090   Biso      1.000     C          0.177874  
         C11       1.0000    0.66900   0.51850   0.64650   Biso      1.000     C          -0.524782           
         C12       1.0000    0.00200   0.43400   0.43630   Biso      1.000     C          -0.086907           
         C13       1.0000    0.15980   0.48860   0.42910   Biso      1.000     C          0.177874  
         C14       1.0000    0.84870   0.44780   0.50450   Biso      1.000     C          -0.197054           
         C15       1.0000    0.99250   0.36080   0.37110   Biso      1.000     C          0.634051  
         C16       1.0000    0.33100   0.48150   0.35350   Biso      1.000     C          -0.524782           
         C17       1.0000    0.16900   0.98150   0.85350   Biso      1.000     C          -0.524781           
         C18       1.0000    0.00750   0.63920   0.62890   Biso      1.000     C          0.634052  
         C19       1.0000    0.50750   0.86080   0.87110   Biso      1.000     C          0.634052  
         C20       1.0000    0.49800   0.93400   0.93630   Biso      1.000     C          -0.086907           
         C21       1.0000    0.15130   0.55220   0.49550   Biso      1.000     C          -0.197053           
         C22       1.0000    0.99250   0.13920   0.37110   Biso      1.000     C          0.63405   
         C23       1.0000    0.49800   0.56600   0.93630   Biso      1.000     C          -0.086903           
         C24       1.0000    0.65130   0.94780   0.00450   Biso      1.000     C          -0.197059           
         C25       1.0000    0.49250   0.13920   0.12890   Biso      1.000     C          0.63405   
         C26       1.0000    0.34870   0.05220   0.99550   Biso      1.000     C          -0.197057           
         C27       1.0000    0.83100   0.01850   0.14650   Biso      1.000     C          -0.524782           
         C28       1.0000    0.49250   0.36080   0.12890   Biso      1.000     C          0.63405   
         C29       1.0000    0.33100   0.01850   0.35350   Biso      1.000     C          -0.524782           
         C30       1.0000    0.34870   0.44780   0.99550   Biso      1.000     C          -0.197057           
         C31       1.0000    0.65980   0.48860   0.07090   Biso      1.000     C          0.177879  
         C32       1.0000    0.83100   0.48150   0.14650   Biso      1.000     C          -0.524782           
         C33       1.0000    0.50200   0.43400   0.06370   Biso      1.000     C          -0.086904           
         C34       1.0000    0.84020   0.98860   0.57090   Biso      1.000     C          0.177879  
         C35       1.0000    0.15130   0.94780   0.49550   Biso      1.000     C          -0.197057           
         C36       1.0000    0.65980   0.01140   0.07090   Biso      1.000     C          0.177878  
         C37       1.0000    0.00750   0.86080   0.62890   Biso      1.000     C          0.634052  
         C38       1.0000    0.66900   0.98150   0.64650   Biso      1.000     C          -0.524782           
         C39       1.0000    0.50200   0.06600   0.06370   Biso      1.000     C          -0.086904           
         C40       1.0000    0.99800   0.93400   0.56370   Biso      1.000     C          -0.086904           
         H1        1.0000    0.81610   0.43420   0.18640   Biso      1.000     H          0.175235  
         H2        1.0000    0.18390   0.93420   0.81360   Biso      1.000     H          0.175235  
         H3        1.0000    0.74440   0.08790   0.50590   Biso      1.000     H          0.131472  
         H4        1.0000    0.16850   0.02620   0.80810   Biso      1.000     H          0.168394  
         H5        1.0000    0.33150   0.97380   0.30810   Biso      1.000     H          0.168396  
         H6        1.0000    0.45350   0.02050   0.39110   Biso      1.000     H          0.173385  
         H7        1.0000    0.31610   0.06580   0.31360   Biso      1.000     H          0.175235  
         H8        1.0000    0.04650   0.97950   0.89110   Biso      1.000     H          0.173384  
         H9        1.0000    0.24440   0.41210   0.99410   Biso      1.000     H          0.131472  
         H10       1.0000    0.74440   0.41210   0.50590   Biso      1.000     H          0.131471  
         H11       1.0000    0.25560   0.58790   0.49410   Biso      1.000     H          0.131472  
         H12       1.0000    0.24440   0.08790   0.99410   Biso      1.000     H          0.131472  
         H13       1.0000    0.81610   0.06580   0.18640   Biso      1.000     H          0.175235  
         H14       1.0000    0.95350   0.02050   0.10890   Biso      1.000     H          0.173385  
         H15       1.0000    0.83150   0.97380   0.19190   Biso      1.000     H          0.168396  
         H16       1.0000    0.25560   0.91210   0.49410   Biso      1.000     H          0.131472  
         H17       1.0000    0.68390   0.93420   0.68640   Biso      1.000     H          0.175235  
         H18       1.0000    0.75560   0.91210   0.00590   Biso      1.000     H          0.131472  
         H19       1.0000    0.66850   0.02620   0.69190   Biso      1.000     H          0.168394  
         H20       1.0000    0.66850   0.47380   0.69190   Biso      1.000     H          0.168394  
         H21       1.0000    0.54650   0.97950   0.60890   Biso      1.000     H          0.173384  
         H22       1.0000    0.75560   0.58790   0.00590   Biso      1.000     H          0.131472  
         H23       1.0000    0.18390   0.56580   0.81360   Biso      1.000     H          0.175235  
         H24       1.0000    0.04650   0.52050   0.89110   Biso      1.000     H          0.173384  
         H25       1.0000    0.16850   0.47380   0.80810   Biso      1.000     H          0.168394  
         H26       1.0000    0.68390   0.56580   0.68640   Biso      1.000     H          0.175235  
         H27       1.0000    0.95350   0.47950   0.10890   Biso      1.000     H          0.173385  
         H28       1.0000    0.31610   0.43420   0.31360   Biso      1.000     H          0.175235  
         H29       1.0000    0.45350   0.47950   0.39110   Biso      1.000     H          0.173385  
         H30       1.0000    0.33150   0.52620   0.30810   Biso      1.000     H          0.168396  
         H31       1.0000    0.54650   0.52050   0.60890   Biso      1.000     H          0.173384  
         H32       1.0000    0.83150   0.52620   0.19190   Biso      1.000     H          0.168395  
         O1        1.0000    0.17780   0.66740   0.64650   Biso      1.000     O          -0.600801           
         O2        1.0000    0.84710   0.66640   0.66430   Biso      1.000     O          -0.572426           
         O3        1.0000    0.48250   0.25000   0.31340   Biso      1.000     O          -0.776762           
         O4        1.0000    0.01750   0.75000   0.81340   Biso      1.000     O          -0.776766           
         O5        1.0000    0.51750   0.75000   0.68660   Biso      1.000     O          -0.776766           
         O6        1.0000    0.65290   0.16640   0.16430   Biso      1.000     O          -0.572424           
         O7        1.0000    0.65290   0.33360   0.16430   Biso      1.000     O          -0.572424           
         O8        1.0000    0.32220   0.16740   0.14650   Biso      1.000     O          -0.600798           
         O9        1.0000    0.84710   0.83360   0.66430   Biso      1.000     O          -0.572426           
         O10       1.0000    0.17780   0.83260   0.64650   Biso      1.000     O          -0.600801           
         O11       1.0000    0.34710   0.66640   0.83570   Biso      1.000     O          -0.572426           
         O12       1.0000    0.32220   0.33260   0.14650   Biso      1.000     O          -0.600798           
         O13       1.0000    0.15290   0.33360   0.33570   Biso      1.000     O          -0.572423           
         O14       1.0000    0.67780   0.66740   0.85350   Biso      1.000     O          -0.6008   
         O15       1.0000    0.34710   0.83360   0.83570   Biso      1.000     O          -0.572426           
         O16       1.0000    0.67780   0.83260   0.85350   Biso      1.000     O          -0.6008   
         O17       1.0000    0.15290   0.16640   0.33570   Biso      1.000     O          -0.572423           
         O18       1.0000    0.82220   0.16740   0.35350   Biso      1.000     O          -0.600799           
         O19       1.0000    0.82220   0.33260   0.35350   Biso      1.000     O          -0.600799           
         O20       1.0000    0.98250   0.25000   0.18660   Biso      1.000     O          -0.776763           
         V1        1.0000    0.70470   0.25000   0.26655   Biso      1.000     V          1.819875  
         V2        1.0000    0.20470   0.25000   0.23345   Biso      1.000     V          1.819872  
         V3        1.0000    0.79530   0.75000   0.76655   Biso      1.000     V          1.819878  
         V4        1.0000    0.29530   0.75000   0.73345   Biso      1.000     V          1.819878 