
##########################################################################
#               Crystallographic Information Format file
#               Produced by PyCifRW module
#
#  This is a CIF file.  CIF has been adopted by the International
#  Union of Crystallography as the standard for data archiving and
#  transmission.
#
#  For information on this file format, follow the CIF links at
#  http://www.iucr.org
##########################################################################

data_image0

_cell_length_a                          14.0022
_cell_length_b                          14.0022
_cell_length_c                          14.0022
_cell_angle_alpha                       104.649
_cell_angle_beta                        104.649
_cell_angle_gamma                       119.618
_symmetry_space_group_name_H-M          'P 1'
_symmetry_int_tables_number             1
loop_
  _symmetry_equiv_pos_as_xyz
         'x, y, z' 
loop_
  _atom_site_label
  _atom_site_occupancy
  _atom_site_fract_x
  _atom_site_fract_y
  _atom_site_fract_z
  _atom_site_thermal_displace_type
  _atom_site_B_iso_or_equiv
  _atom_site_type_symbol
  _atom_site_charge
         C1        1.0000    0.64970   0.37610   0.29260   Biso      1.000     C          -0.129072           
         C2        1.0000    0.57670   0.30550   0.80440   Biso      1.000     C          0.327884  
         C3        1.0000    0.60710   0.39970   0.77360   Biso      1.000     C          -0.128922           
         C4        1.0000    0.55270   0.49330   0.66420   Biso      1.000     C          0.649497  
         C5        1.0000    0.41093   0.81870   0.53703   Biso      1.000     C          -0.026512           
         C6        1.0000    0.50953   0.91730   0.53703   Biso      1.000     C          -0.156494           
         C7        1.0000    0.43090   0.73750   0.57760   Biso      1.000     C          0.6921609999999999  
         C8        1.0000    0.64070   0.44640   0.37490   Biso      1.000     C          -0.018330000000000003         
         C9        1.0000    0.53780   0.39170   0.39350   Biso      1.000     C          -0.080787           
         C10       1.0000    0.44360   0.26660   0.32960   Biso      1.000     C          -0.024559           
         C11       1.0000    0.45260   0.19640   0.24740   Biso      1.000     C          -0.134168           
         C12       1.0000    0.55550   0.25110   0.22880   Biso      1.000     C          0.327917  
         C13       1.0000    0.74330   0.57910   0.44060   Biso      1.000     C          0.649469  
         C14       1.0000    0.33270   0.20500   0.34670   Biso      1.000     C          0.6195149999999999  
         C15       1.0000    0.06870   0.03167   0.90777   Biso      1.000     C          -0.026302           
         C16       1.0000    0.16730   0.13027   0.90777   Biso      1.000     C          -0.15633699999999998          
         C17       1.0000    0.98750   0.90990   0.80660   Biso      1.000     C          0.6921039999999999  
         C18       1.0000    0.07150   0.26580   0.62510   Biso      1.000     C          -0.018253           
         C19       1.0000    0.04680   0.04680   0.00000   Biso      1.000     C          -0.071362           
         C20       1.0000    0.24450   0.24450   0.00000   Biso      1.000     C          0.339426  
         C21       1.0000    0.29680   0.79680   0.50000   Biso      1.000     C          -0.07181599999999999          
         C22       1.0000    0.49450   0.99450   0.50000   Biso      1.000     C          0.339423  
         C23       1.0000    0.10330   0.18090   0.19340   Biso      1.000     C          0.6920930000000001  
         C24       1.0000    0.22250   0.25953   0.09223   Biso      1.000     C          -0.156303           
         C25       1.0000    0.45520   0.20260   0.75620   Biso      1.000     C          -0.133973           
         C26       1.0000    0.12390   0.16093   0.09223   Biso      1.000     C          -0.026285000000000003         
         C27       1.0000    0.13850   0.30270   0.55940   Biso      1.000     C          0.649407  
         C28       1.0000    0.08350   0.35710   0.70740   Biso      1.000     C          -0.128831           
         C29       1.0000    0.02230   0.32670   0.77120   Biso      1.000     C          0.327822  
         C30       1.0000    0.94900   0.20520   0.75260   Biso      1.000     C          -0.133906           
         C31       1.0000    0.93700   0.11400   0.67040   Biso      1.000     C          -0.024454           
         C32       1.0000    0.99820   0.14430   0.60650   Biso      1.000     C          -0.080336           
         C33       1.0000    0.85830   0.98600   0.65330   Biso      1.000     C          0.61949   
         C34       1.0000    0.36400   0.19360   0.67700   Biso      1.000     C          -0.024552           
         C35       1.0000    0.23600   0.08270   0.62770   Biso      1.000     C          0.619575  
         C36       1.0000    0.51580   0.39070   0.69430   Biso      1.000     C          -0.018264           
         C37       1.0000    0.69640   0.82150   0.30570   Biso      1.000     C          -0.018249           
         C38       1.0000    0.64170   0.74820   0.35390   Biso      1.000     C          -0.08029299999999999          
         C39       1.0000    0.39430   0.28780   0.64610   Biso      1.000     C          -0.080484           
         C40       1.0000    0.44640   0.69900   0.24380   Biso      1.000     C          -0.13385999999999998          
         C41       1.0000    0.50110   0.77230   0.19560   Biso      1.000     C          0.327839  
         C42       1.0000    0.62610   0.83350   0.22640   Biso      1.000     C          -0.12876500000000002          
         C43       1.0000    0.51660   0.68700   0.32300   Biso      1.000     C          -0.024507           
         C44       1.0000    0.45500   0.60830   0.37230   Biso      1.000     C          0.619559  
         C45       1.0000    0.28167   0.87390   0.46297   Biso      1.000     C          -0.026497000000000003         
         C46       1.0000    0.38027   0.97250   0.46297   Biso      1.000     C          -0.156471           
         C47       1.0000    0.15990   0.85330   0.42240   Biso      1.000     C          0.692187  
         C48       1.0000    0.82910   0.88850   0.33580   Biso      1.000     C          0.649438  
         H1        1.0000    0.68870   0.74020   0.40690   Biso      1.000     H          0.108601  
         H2        1.0000    0.36270   0.65800   0.22310   Biso      1.000     H          0.15556199999999998           
         H3        1.0000    0.66270   0.88250   0.19420   Biso      1.000     H          0.152974  
         H4        1.0000    0.36990   0.02390   0.43820   Biso      1.000     H          0.139256  
         H5        1.0000    0.33330   0.28180   0.59310   Biso      1.000     H          0.108551  
         H6        1.0000    0.43490   0.13960   0.77690   Biso      1.000     H          0.155534  
         H7        1.0000    0.68830   0.46850   0.80580   Biso      1.000     H          0.152908  
         H8        1.0000    0.58570   0.93170   0.56180   Biso      1.000     H          0.13919   
         H9        1.0000    0.38960   0.11270   0.20470   Biso      1.000     H          0.155447  
         H10       1.0000    0.53180   0.43870   0.44850   Biso      1.000     H          0.108508  
         H11       1.0000    0.18170   0.11990   0.84600   Biso      1.000     H          0.139323  
         H12       1.0000    0.99020   0.08330   0.55150   Biso      1.000     H          0.10858599999999999           
         H13       1.0000    0.90800   0.18490   0.79530   Biso      1.000     H          0.155528  
         H14       1.0000    0.13250   0.43830   0.71980   Biso      1.000     H          0.152923  
         H15       1.0000    0.27390   0.33570   0.15400   Biso      1.000     H          0.139321  
         H16       1.0000    0.23080   0.73080   0.50000   Biso      1.000     H          0.129992  
         H17       1.0000    0.98080   0.98080   0.00000   Biso      1.000     H          0.13005999999999998           
         H18       1.0000    0.71850   0.41270   0.28020   Biso      1.000     H          0.152831  
         O1        1.0000    0.75310   0.64290   0.52700   Biso      1.000     O          -0.737567           
         O2        1.0000    0.82110   0.62570   0.40580   Biso      1.000     O          -0.630841           
         O3        1.0000    0.31290   0.26630   0.41040   Biso      1.000     O          -0.744943           
         O4        1.0000    0.25560   0.08780   0.29620   Biso      1.000     O          -0.6224270000000001           
         O5        1.0000    0.56630   0.18570   0.15040   Biso      1.000     O          -0.337214           
         O6        1.0000    0.88620   0.83060   0.79200   Biso      1.000     O          -0.67484  
         O7        1.0000    0.03070   0.89840   0.74270   Biso      1.000     O          -0.6937260000000001           
         O8        1.0000    0.15570   0.28800   0.25730   Biso      1.000     O          -0.693702           
         O9        1.0000    0.21990   0.41530   0.59420   Biso      1.000     O          -0.630743           
         O10       1.0000    0.85590   0.90250   0.58960   Biso      1.000     O          -0.744863           
         O11       1.0000    0.03860   0.09420   0.20800   Biso      1.000     O          -0.674855           
         O12       1.0000    0.03530   0.41590   0.84960   Biso      1.000     O          -0.33623000000000003          
         O13       1.0000    0.53800   0.78070   0.63230   Biso      1.000     O          -0.693862           
         O14       1.0000    0.79160   0.95940   0.70380   Biso      1.000     O          -0.622372           
         O15       1.0000    0.11590   0.22610   0.47300   Biso      1.000     O          -0.7374390000000001           
         O16       1.0000    0.34420   0.63620   0.55560   Biso      1.000     O          -0.674968           
         O17       1.0000    0.33860   0.33860   0.00000   Biso      1.000     O          -0.374749           
         O18       1.0000    0.20940   0.00560   0.66780   Biso      1.000     O          -0.622455           
         O19       1.0000    0.58860   0.08860   0.50000   Biso      1.000     O          -0.376671           
         O20       1.0000    0.89290   0.86590   0.38980   Biso      1.000     O          -0.73745  
         O21       1.0000    0.87570   0.96990   0.30460   Biso      1.000     O          -0.630786           
         O22       1.0000    0.66590   0.31630   0.88060   Biso      1.000     O          -0.336564           
         O23       1.0000    0.33780   0.54160   0.33220   Biso      1.000     O          -0.6224390000000001           
         O24       1.0000    0.51630   0.60590   0.45340   Biso      1.000     O          -0.7448020000000001           
         O25       1.0000    0.08060   0.78860   0.44440   Biso      1.000     O          -0.674964           
         O26       1.0000    0.14840   0.90570   0.36770   Biso      1.000     O          -0.693864           
         O27       1.0000    0.47610   0.50310   0.61020   Biso      1.000     O          -0.737518           
         O28       1.0000    0.66530   0.57110   0.69540   Biso      1.000     O          -0.6308050000000001           
         O29       1.0000    0.15250   0.06290   0.54660   Biso      1.000     O          -0.7449279999999999           
         O30       1.0000    0.43570   0.78530   0.11940   Biso      1.000     O          -0.336113           
         Pr1       1.0000    0.08755   0.03880   0.35375   Biso      1.000     Pr          2.153454  
         Pr2       1.0000    0.68505   0.73380   0.64625   Biso      1.000     Pr          2.153463  
         Pr3       1.0000    0.28880   0.43505   0.45125   Biso      1.000     Pr          2.1534310000000003  
         Pr4       1.0000    0.98380   0.83755   0.54875   Biso      1.000     Pr          2.153393 