
##########################################################################
#               Crystallographic Information Format file
#               Produced by PyCifRW module
#
#  This is a CIF file.  CIF has been adopted by the International
#  Union of Crystallography as the standard for data archiving and
#  transmission.
#
#  For information on this file format, follow the CIF links at
#  http://www.iucr.org
##########################################################################

data_image0

_cell_length_a                          7.542
_cell_length_b                          17.899
_cell_length_c                          23.6594
_cell_angle_alpha                       92.6607
_cell_angle_beta                        90
_cell_angle_gamma                       90
_symmetry_space_group_name_H-M          'P 1'
_symmetry_int_tables_number             1
loop_
  _symmetry_equiv_pos_as_xyz
         'x, y, z' 
loop_
  _atom_site_label
  _atom_site_occupancy
  _atom_site_fract_x
  _atom_site_fract_y
  _atom_site_fract_z
  _atom_site_thermal_displace_type
  _atom_site_B_iso_or_equiv
  _atom_site_type_symbol
  _atom_site_charge
         C1        1.0000    0.73980   0.32830   0.23280   Biso      1.000     C          -0.139648           
         C2        1.0000    0.01460   0.38250   0.62030   Biso      1.000     C          0.103175  
         C3        1.0000    0.22340   0.47630   0.58580   Biso      1.000     C          0.696179  
         C4        1.0000    0.96080   0.52240   0.64100   Biso      1.000     C          0.693929  
         C5        1.0000    0.09920   0.45880   0.63500   Biso      1.000     C          -0.311275           
         C6        1.0000    0.18630   0.42740   0.79020   Biso      1.000     C          -0.081982           
         C7        1.0000    0.10860   0.42810   0.73770   Biso      1.000     C          -0.138828           
         C8        1.0000    0.19710   0.45680   0.69250   Biso      1.000     C          0.103717  
         C9        1.0000    0.36550   0.48560   0.70120   Biso      1.000     C          -0.158636           
         C10       1.0000    0.44360   0.48420   0.75350   Biso      1.000     C          -0.082196           
         C11       1.0000    0.35450   0.45500   0.79910   Biso      1.000     C          -0.033425           
         C12       1.0000    0.44120   0.45500   0.85520   Biso      1.000     C          0.610312  
         C13       1.0000    0.64990   0.69330   0.71700   Biso      1.000     C          0.693315  
         C14       1.0000    0.45750   0.80730   0.65490   Biso      1.000     C          -0.145273           
         C15       1.0000    0.41340   0.79580   0.71100   Biso      1.000     C          0.103886  
         C16       1.0000    0.11420   0.31900   0.62740   Biso      1.000     C          -0.143089           
         C17       1.0000    0.26020   0.82830   0.73280   Biso      1.000     C          -0.139645           
         C18       1.0000    0.19030   0.87800   0.64300   Biso      1.000     C          -0.023885           
         C19       1.0000    0.06710   0.91980   0.60650   Biso      1.000     C          0.555561  
         C20       1.0000    0.80220   0.16480   0.57980   Biso      1.000     C          0.62163   
         C21       1.0000    0.34580   0.65240   0.87810   Biso      1.000     C          -0.085575           
         C22       1.0000    0.84420   0.12660   0.90080   Biso      1.000     C          -0.147829           
         C23       1.0000    0.77760   0.19660   0.91390   Biso      1.000     C          -0.084054           
         C24       1.0000    0.87760   0.25940   0.90670   Biso      1.000     C          -0.029577           
         C25       1.0000    0.05030   0.25100   0.88630   Biso      1.000     C          -0.091057           
         C26       1.0000    0.11420   0.18100   0.87260   Biso      1.000     C          -0.143086           
         C27       1.0000    0.01460   0.11750   0.87970   Biso      1.000     C          0.103179  
         C28       1.0000    0.22340   0.02370   0.91420   Biso      1.000     C          0.696179  
         C29       1.0000    0.96080   0.97760   0.85900   Biso      1.000     C          0.693929  
         C30       1.0000    0.09920   0.04120   0.86500   Biso      1.000     C          -0.311276           
         C31       1.0000    0.18630   0.07260   0.70980   Biso      1.000     C          -0.081982           
         C32       1.0000    0.15160   0.86900   0.69910   Biso      1.000     C          -0.086709           
         C33       1.0000    0.10860   0.07190   0.76230   Biso      1.000     C          -0.138828           
         C34       1.0000    0.05030   0.24900   0.61370   Biso      1.000     C          -0.091052           
         C35       1.0000    0.77760   0.30340   0.58610   Biso      1.000     C          -0.084058           
         C36       1.0000    0.80970   0.12200   0.35700   Biso      1.000     C          -0.023885           
         C37       1.0000    0.93290   0.08020   0.39350   Biso      1.000     C          0.555563  
         C38       1.0000    0.19780   0.83520   0.42020   Biso      1.000     C          0.621629  
         C39       1.0000    0.65420   0.34760   0.12190   Biso      1.000     C          -0.085575           
         C40       1.0000    0.15580   0.87340   0.09920   Biso      1.000     C          -0.147829           
         C41       1.0000    0.22240   0.80340   0.08610   Biso      1.000     C          -0.084054           
         C42       1.0000    0.12240   0.74060   0.09330   Biso      1.000     C          -0.029577           
         C43       1.0000    0.94970   0.74900   0.11370   Biso      1.000     C          -0.091057           
         C44       1.0000    0.88580   0.81900   0.12740   Biso      1.000     C          -0.143086           
         C45       1.0000    0.98540   0.88250   0.12030   Biso      1.000     C          0.103179  
         C46       1.0000    0.77660   0.97630   0.08580   Biso      1.000     C          0.696179  
         C47       1.0000    0.03920   0.02240   0.14100   Biso      1.000     C          0.693929  
         C48       1.0000    0.90080   0.95880   0.13500   Biso      1.000     C          -0.311276           
         C49       1.0000    0.81370   0.92740   0.29020   Biso      1.000     C          -0.081982           
         C50       1.0000    0.87760   0.24060   0.59330   Biso      1.000     C          -0.029577           
         C51       1.0000    0.89140   0.92810   0.23770   Biso      1.000     C          -0.138828           
         C52       1.0000    0.63450   0.98560   0.20120   Biso      1.000     C          -0.158637           
         C53       1.0000    0.55640   0.98420   0.25350   Biso      1.000     C          -0.082196           
         C54       1.0000    0.64550   0.95500   0.29910   Biso      1.000     C          -0.033425           
         C55       1.0000    0.55880   0.95500   0.35520   Biso      1.000     C          0.610312  
         C56       1.0000    0.35010   0.19330   0.21700   Biso      1.000     C          0.693314  
         C57       1.0000    0.54250   0.30730   0.15490   Biso      1.000     C          -0.145264           
         C58       1.0000    0.58660   0.29580   0.21100   Biso      1.000     C          0.103888  
         C59       1.0000    0.58660   0.20420   0.28900   Biso      1.000     C          0.103883  
         C60       1.0000    0.84840   0.36900   0.19910   Biso      1.000     C          -0.086711           
         C61       1.0000    0.80970   0.37800   0.14300   Biso      1.000     C          -0.02388  
         C62       1.0000    0.93290   0.41980   0.10650   Biso      1.000     C          0.555563  
         C63       1.0000    0.19780   0.66480   0.07980   Biso      1.000     C          0.621629  
         C64       1.0000    0.34580   0.84760   0.62190   Biso      1.000     C          -0.085563           
         C65       1.0000    0.84420   0.37340   0.59920   Biso      1.000     C          -0.147823           
         C66       1.0000    0.80290   0.95680   0.19250   Biso      1.000     C          0.103718  
         C67       1.0000    0.19710   0.04320   0.80750   Biso      1.000     C          0.103717  
         C68       1.0000    0.36550   0.01440   0.79880   Biso      1.000     C          -0.158636           
         C69       1.0000    0.44360   0.01580   0.74650   Biso      1.000     C          -0.082196           
         C70       1.0000    0.81370   0.57260   0.20980   Biso      1.000     C          -0.081982           
         C71       1.0000    0.90080   0.54120   0.36500   Biso      1.000     C          -0.311275           
         C72       1.0000    0.03920   0.47760   0.35900   Biso      1.000     C          0.693929  
         C73       1.0000    0.77660   0.52370   0.41420   Biso      1.000     C          0.696179  
         C74       1.0000    0.98540   0.61750   0.37970   Biso      1.000     C          0.103175  
         C75       1.0000    0.88580   0.68100   0.37260   Biso      1.000     C          -0.143089           
         C76       1.0000    0.89140   0.57190   0.26230   Biso      1.000     C          -0.138828           
         C77       1.0000    0.94970   0.75100   0.38630   Biso      1.000     C          -0.091052           
         C78       1.0000    0.22240   0.69660   0.41390   Biso      1.000     C          -0.084058           
         C79       1.0000    0.15580   0.62660   0.40080   Biso      1.000     C          -0.147823           
         C80       1.0000    0.65420   0.15240   0.37810   Biso      1.000     C          -0.085571           
         C81       1.0000    0.52900   0.75000   0.75000   Biso      1.000     C          -0.311982           
         C82       1.0000    0.47100   0.25000   0.25000   Biso      1.000     C          -0.311983           
         C83       1.0000    0.84840   0.13100   0.30090   Biso      1.000     C          -0.086715           
         C84       1.0000    0.12240   0.75940   0.40670   Biso      1.000     C          -0.029577           
         C85       1.0000    0.80290   0.54320   0.30750   Biso      1.000     C          0.103716  
         C86       1.0000    0.73980   0.17170   0.26720   Biso      1.000     C          -0.139638           
         C87       1.0000    0.55640   0.51580   0.24650   Biso      1.000     C          -0.082202           
         C88       1.0000    0.63450   0.51440   0.29880   Biso      1.000     C          -0.158629           
         C89       1.0000    0.44120   0.04500   0.64480   Biso      1.000     C          0.610312  
         C90       1.0000    0.64990   0.80670   0.78300   Biso      1.000     C          0.693315  
         C91       1.0000    0.45750   0.69270   0.84510   Biso      1.000     C          -0.145264           
         C92       1.0000    0.41340   0.70420   0.78900   Biso      1.000     C          0.103885  
         C93       1.0000    0.26020   0.67170   0.76720   Biso      1.000     C          -0.139644           
         C94       1.0000    0.15160   0.63100   0.80090   Biso      1.000     C          -0.086711           
         C95       1.0000    0.35450   0.04500   0.70090   Biso      1.000     C          -0.033424           
         C96       1.0000    0.06710   0.58020   0.89350   Biso      1.000     C          0.555562  
         C97       1.0000    0.80220   0.33520   0.92020   Biso      1.000     C          0.621629  
         C98       1.0000    0.54250   0.19270   0.34510   Biso      1.000     C          -0.145264           
         C99       1.0000    0.35010   0.30670   0.28300   Biso      1.000     C          0.693315  
         C100      1.0000    0.55880   0.54500   0.14480   Biso      1.000     C          0.610312  
         C101      1.0000    0.64550   0.54500   0.20090   Biso      1.000     C          -0.033424           
         C102      1.0000    0.19030   0.62200   0.85700   Biso      1.000     C          -0.023879           
         F1        1.0000    0.27630   0.14560   0.25070   Biso      1.000     F          -0.195399           
         F2        1.0000    0.16990   0.00533   0.17583   Biso      1.000     F          -0.193684           
         F3        1.0000    0.96550   0.08522   0.16212   Biso      1.000     F          -0.203151           
         F4        1.0000    0.11300   0.03881   0.09211   Biso      1.000     F          -0.204837           
         F5        1.0000    0.63560   0.93171   0.08331   Biso      1.000     F          -0.196899           
         F6        1.0000    0.71550   0.04647   0.08827   Biso      1.000     F          -0.210065           
         F7        1.0000    0.21810   0.27463   0.31053   Biso      1.000     F          -0.211561           
         F8        1.0000    0.44230   0.34685   0.32115   Biso      1.000     F          -0.195246           
         F9        1.0000    0.27630   0.35440   0.24930   Biso      1.000     F          -0.195399           
         F10       1.0000    0.16990   0.49467   0.32417   Biso      1.000     F          -0.193684           
         F11       1.0000    0.96550   0.41478   0.33788   Biso      1.000     F          -0.203151           
         F12       1.0000    0.11300   0.46119   0.40789   Biso      1.000     F          -0.204837           
         F13       1.0000    0.21810   0.22537   0.18947   Biso      1.000     F          -0.211561           
         F14       1.0000    0.63560   0.56829   0.41669   Biso      1.000     F          -0.196898           
         F15       1.0000    0.85710   0.96686   0.03616   Biso      1.000     F          -0.204787           
         F16       1.0000    0.44230   0.15315   0.17885   Biso      1.000     F          -0.195246           
         F17       1.0000    0.78190   0.72537   0.68947   Biso      1.000     F          -0.211561           
         F18       1.0000    0.28450   0.54647   0.58827   Biso      1.000     F          -0.210064           
         F19       1.0000    0.55770   0.84685   0.82115   Biso      1.000     F          -0.195246           
         F20       1.0000    0.72370   0.85440   0.74930   Biso      1.000     F          -0.195399           
         F21       1.0000    0.83010   0.99467   0.82417   Biso      1.000     F          -0.193683           
         F22       1.0000    0.03450   0.91478   0.83788   Biso      1.000     F          -0.203151           
         F23       1.0000    0.88700   0.96119   0.90789   Biso      1.000     F          -0.204837           
         F24       1.0000    0.36440   0.06829   0.91669   Biso      1.000     F          -0.196899           
         F25       1.0000    0.14290   0.46686   0.53616   Biso      1.000     F          -0.204787           
         F26       1.0000    0.28450   0.95353   0.91173   Biso      1.000     F          -0.210065           
         F27       1.0000    0.55770   0.65315   0.67885   Biso      1.000     F          -0.195246           
         F28       1.0000    0.72370   0.64560   0.75070   Biso      1.000     F          -0.195399           
         F29       1.0000    0.83010   0.50533   0.67583   Biso      1.000     F          -0.193684           
         F30       1.0000    0.03450   0.58522   0.66212   Biso      1.000     F          -0.203151           
         F31       1.0000    0.88700   0.53881   0.59211   Biso      1.000     F          -0.204837           
         F32       1.0000    0.36440   0.43171   0.58331   Biso      1.000     F          -0.196899           
         F33       1.0000    0.14290   0.03314   0.96384   Biso      1.000     F          -0.204788           
         F34       1.0000    0.78190   0.77463   0.81053   Biso      1.000     F          -0.211561           
         F35       1.0000    0.85710   0.53314   0.46384   Biso      1.000     F          -0.204788           
         F36       1.0000    0.71550   0.45353   0.41173   Biso      1.000     F          -0.210065           
         H1        1.0000    0.62390   0.14550   0.41560   Biso      1.000     H          0.104528  
         H2        1.0000    0.99490   0.09120   0.76750   Biso      1.000     H          0.12049   
         H3        1.0000    0.12410   0.09190   0.67980   Biso      1.000     H          0.118132  
         H4        1.0000    0.22840   0.17600   0.85810   Biso      1.000     H          0.116667  
         H5        1.0000    0.12150   0.29280   0.88200   Biso      1.000     H          0.121439  
         H6        1.0000    0.66280   0.20150   0.92790   Biso      1.000     H          0.118477  
         H7        1.0000    0.77420   0.08480   0.90620   Biso      1.000     H          0.112815  
         H8        1.0000    0.37610   0.64550   0.91560   Biso      1.000     H          0.104528  
         H9        1.0000    0.04980   0.89090   0.71460   Biso      1.000     H          0.113988  
         H10       1.0000    0.23050   0.82250   0.77050   Biso      1.000     H          0.120448  
         H11       1.0000    0.56240   0.78780   0.63980   Biso      1.000     H          0.118034  
         H12       1.0000    0.55750   0.50320   0.75860   Biso      1.000     H          0.117978  
         H13       1.0000    0.42630   0.50590   0.67140   Biso      1.000     H          0.110775  
         H14       1.0000    0.99490   0.40880   0.73250   Biso      1.000     H          0.12049   
         H15       1.0000    0.12410   0.40810   0.82020   Biso      1.000     H          0.118132  
         H16       1.0000    0.22840   0.32400   0.64190   Biso      1.000     H          0.116667  
         H17       1.0000    0.12150   0.20720   0.61800   Biso      1.000     H          0.121439  
         H18       1.0000    0.66280   0.29850   0.57210   Biso      1.000     H          0.118477  
         H19       1.0000    0.77420   0.41520   0.59380   Biso      1.000     H          0.112815  
         H20       1.0000    0.37610   0.85450   0.58440   Biso      1.000     H          0.104526  
         H21       1.0000    0.95020   0.39090   0.21460   Biso      1.000     H          0.113989  
         H22       1.0000    0.42630   0.99410   0.82860   Biso      1.000     H          0.110775  
         H23       1.0000    0.76950   0.32250   0.27050   Biso      1.000     H          0.120448  
         H24       1.0000    0.55750   0.99680   0.74140   Biso      1.000     H          0.117978  
         H25       1.0000    0.23050   0.67750   0.72950   Biso      1.000     H          0.120448  
         H26       1.0000    0.22580   0.58480   0.40620   Biso      1.000     H          0.112815  
         H27       1.0000    0.33720   0.70150   0.42790   Biso      1.000     H          0.118477  
         H28       1.0000    0.87850   0.79280   0.38200   Biso      1.000     H          0.121439  
         H29       1.0000    0.77160   0.67600   0.35810   Biso      1.000     H          0.116667  
         H30       1.0000    0.87590   0.59190   0.17980   Biso      1.000     H          0.118133  
         H31       1.0000    0.00510   0.59120   0.26750   Biso      1.000     H          0.12049   
         H32       1.0000    0.57370   0.49410   0.32860   Biso      1.000     H          0.110775  
         H33       1.0000    0.44250   0.49680   0.24140   Biso      1.000     H          0.117978  
         H34       1.0000    0.43760   0.21220   0.36020   Biso      1.000     H          0.118033  
         H35       1.0000    0.76950   0.17750   0.22950   Biso      1.000     H          0.120448  
         H36       1.0000    0.95020   0.10910   0.28540   Biso      1.000     H          0.113989  
         H37       1.0000    0.62390   0.35450   0.08440   Biso      1.000     H          0.104528  
         H38       1.0000    0.22580   0.91520   0.09380   Biso      1.000     H          0.112815  
         H39       1.0000    0.33720   0.79850   0.07210   Biso      1.000     H          0.118477  
         H40       1.0000    0.87850   0.70720   0.11800   Biso      1.000     H          0.121439  
         H41       1.0000    0.77160   0.82400   0.14190   Biso      1.000     H          0.116667  
         H42       1.0000    0.87590   0.90810   0.32020   Biso      1.000     H          0.118132  
         H43       1.0000    0.00510   0.90880   0.23250   Biso      1.000     H          0.12049   
         H44       1.0000    0.57370   0.00590   0.17140   Biso      1.000     H          0.110776  
         H45       1.0000    0.44250   0.00320   0.25860   Biso      1.000     H          0.117977  
         H46       1.0000    0.04980   0.60910   0.78540   Biso      1.000     H          0.113989  
         H47       1.0000    0.56240   0.71220   0.86020   Biso      1.000     H          0.118033  
         H48       1.0000    0.43760   0.28780   0.13980   Biso      1.000     H          0.118033  
         O1        1.0000    0.34510   0.83882   0.44342   Biso      1.000     O          -0.57028  
         O2        1.0000    0.64030   0.57252   0.10472   Biso      1.000     O          -0.533363           
         O3        1.0000    0.65490   0.33882   0.94342   Biso      1.000     O          -0.570281           
         O4        1.0000    0.89490   0.39046   0.90716   Biso      1.000     O          -0.527446           
         O5        1.0000    0.92360   0.55898   0.87078   Biso      1.000     O          -0.506445           
         O6        1.0000    0.10500   0.57018   0.94328   Biso      1.000     O          -0.3927   
         O7        1.0000    0.59050   0.01591   0.64101   Biso      1.000     O          -0.537844           
         O8        1.0000    0.35970   0.07252   0.60472   Biso      1.000     O          -0.533364           
         O9        1.0000    0.67300   0.49635   0.98705   Biso      1.000     O          -0.682497           
         O10       1.0000    0.65490   0.16118   0.55658   Biso      1.000     O          -0.57028  
         O11       1.0000    0.32700   0.99635   0.48705   Biso      1.000     O          -0.682503           
         O12       1.0000    0.92360   0.94102   0.62922   Biso      1.000     O          -0.506445           
         O13       1.0000    0.10500   0.92982   0.55672   Biso      1.000     O          -0.392695           
         O14       1.0000    0.59050   0.48409   0.85899   Biso      1.000     O          -0.537843           
         O15       1.0000    0.89490   0.10954   0.59284   Biso      1.000     O          -0.527448           
         O16       1.0000    0.67300   0.00365   0.51295   Biso      1.000     O          -0.682498           
         O17       1.0000    0.40950   0.51591   0.14101   Biso      1.000     O          -0.537844           
         O18       1.0000    0.35970   0.42748   0.89528   Biso      1.000     O          -0.533363           
         O19       1.0000    0.07640   0.05898   0.37078   Biso      1.000     O          -0.506446           
         O20       1.0000    0.10510   0.89046   0.40716   Biso      1.000     O          -0.527447           
         O21       1.0000    0.32700   0.50365   0.01295   Biso      1.000     O          -0.682501           
         O22       1.0000    0.89500   0.07018   0.44328   Biso      1.000     O          -0.392702           
         O23       1.0000    0.40950   0.98409   0.35899   Biso      1.000     O          -0.537844           
         O24       1.0000    0.89500   0.42982   0.05672   Biso      1.000     O          -0.3927   
         O25       1.0000    0.07640   0.44102   0.12922   Biso      1.000     O          -0.506446           
         O26       1.0000    0.10510   0.60954   0.09284   Biso      1.000     O          -0.527447           
         O27       1.0000    0.34510   0.66118   0.05658   Biso      1.000     O          -0.57028  
         O28       1.0000    0.64030   0.92748   0.39528   Biso      1.000     O          -0.533361           
         Zn1       1.0000    0.20991   0.99032   0.41268   Biso      1.000     Zn          0.93642   
         Zn2       1.0000    0.52668   0.92081   0.46959   Biso      1.000     Zn          0.99332   
         Zn3       1.0000    0.20991   0.50968   0.08732   Biso      1.000     Zn          0.93642   
         Zn4       1.0000    0.52668   0.57919   0.03041   Biso      1.000     Zn          0.993321  
         Zn5       1.0000    0.79009   0.00968   0.58732   Biso      1.000     Zn          0.936419  
         Zn6       1.0000    0.47332   0.07919   0.53041   Biso      1.000     Zn          0.993322  
         Zn7       1.0000    0.79009   0.49032   0.91268   Biso      1.000     Zn          0.936416  
         Zn8       1.0000    0.47332   0.42081   0.96959   Biso      1.000     Zn          0.993322 