
##########################################################################
#               Crystallographic Information Format file
#               Produced by PyCifRW module
#
#  This is a CIF file.  CIF has been adopted by the International
#  Union of Crystallography as the standard for data archiving and
#  transmission.
#
#  For information on this file format, follow the CIF links at
#  http://www.iucr.org
##########################################################################

data_image0

_cell_length_a                          7.4054
_cell_length_b                          18.811
_cell_length_c                          12.006
_cell_angle_alpha                       90
_cell_angle_beta                        97.06
_cell_angle_gamma                       90
_symmetry_space_group_name_H-M          'P 1'
_symmetry_int_tables_number             1
loop_
  _symmetry_equiv_pos_as_xyz
         'x, y, z' 
loop_
  _atom_site_label
  _atom_site_occupancy
  _atom_site_fract_x
  _atom_site_fract_y
  _atom_site_fract_z
  _atom_site_thermal_displace_type
  _atom_site_B_iso_or_equiv
  _atom_site_type_symbol
  _atom_site_charge
         C1        1.0000    0.03140   0.17640   0.32610   Biso      1.000     C          0.602529  
         C2        1.0000    0.68360   0.85370   0.37600   Biso      1.000     C          0.35665399999999997           
         C3        1.0000    0.50000   0.83540   0.37310   Biso      1.000     C          -0.171195           
         C4        1.0000    0.45970   0.26110   0.75690   Biso      1.000     C          -0.033261           
         C5        1.0000    0.37570   0.87480   0.43860   Biso      1.000     C          0.60775   
         C6        1.0000    0.62430   0.12520   0.56140   Biso      1.000     C          0.60775   
         C7        1.0000    0.56930   0.22220   0.69500   Biso      1.000     C          -0.083871           
         C8        1.0000    0.50000   0.16460   0.62690   Biso      1.000     C          -0.171195           
         C9        1.0000    0.31640   0.14630   0.62400   Biso      1.000     C          0.356655  
         C10       1.0000    0.79180   0.81220   0.31180   Biso      1.000     C          -0.195028           
         C11       1.0000    0.96860   0.82360   0.67390   Biso      1.000     C          0.60253   
         C12       1.0000    0.22270   0.74280   0.74740   Biso      1.000     C          -0.060157           
         C13       1.0000    0.29180   0.68780   0.81180   Biso      1.000     C          -0.19501  
         C14       1.0000    0.18360   0.64630   0.87600   Biso      1.000     C          0.356653  
         C15       1.0000    0.00000   0.66460   0.87310   Biso      1.000     C          -0.171194           
         C16       1.0000    0.93070   0.72220   0.80500   Biso      1.000     C          -0.083871           
         C17       1.0000    0.87570   0.62520   0.93860   Biso      1.000     C          0.607751  
         C18       1.0000    0.20820   0.18780   0.68820   Biso      1.000     C          -0.195028           
         C19       1.0000    0.27730   0.24280   0.75260   Biso      1.000     C          -0.060139           
         C20       1.0000    0.04030   0.76110   0.74310   Biso      1.000     C          -0.033257           
         C21       1.0000    0.72270   0.75720   0.24740   Biso      1.000     C          -0.060139           
         C22       1.0000    0.43070   0.77780   0.30500   Biso      1.000     C          -0.083872           
         C23       1.0000    0.12430   0.37480   0.06140   Biso      1.000     C          0.60775   
         C24       1.0000    0.95970   0.23890   0.25690   Biso      1.000     C          -0.033260000000000005         
         C25       1.0000    0.77730   0.25720   0.25260   Biso      1.000     C          -0.060157           
         C26       1.0000    0.70820   0.31220   0.18820   Biso      1.000     C          -0.195012           
         C27       1.0000    0.81640   0.35370   0.12400   Biso      1.000     C          0.356653  
         C28       1.0000    0.00000   0.33540   0.12690   Biso      1.000     C          -0.171195           
         C29       1.0000    0.06930   0.27780   0.19500   Biso      1.000     C          -0.083871           
         C30       1.0000    0.54030   0.73890   0.24310   Biso      1.000     C          -0.033259           
         C31       1.0000    0.53140   0.32360   0.82610   Biso      1.000     C          0.602531  
         C32       1.0000    0.46860   0.67640   0.17390   Biso      1.000     C          0.60253   
         Cu1       1.0000    0.18260   0.55901   0.06850   Biso      1.000     Cu          0.9411950000000001  
         Cu2       1.0000    0.31740   0.05901   0.43150   Biso      1.000     Cu          0.9411930000000001  
         Cu3       1.0000    0.93761   0.07552   0.49378   Biso      1.000     Cu          1.0417239999999999  
         Cu4       1.0000    0.68260   0.94099   0.56850   Biso      1.000     Cu          0.9411959999999999  
         Cu5       1.0000    0.06239   0.92448   0.50622   Biso      1.000     Cu          1.041723  
         Cu6       1.0000    0.43761   0.42448   0.99378   Biso      1.000     Cu          1.041725  
         Cu7       1.0000    0.56239   0.57552   0.00622   Biso      1.000     Cu          1.041723  
         Cu8       1.0000    0.81740   0.44099   0.93150   Biso      1.000     Cu          0.9411950000000001  
         H1        1.0000    0.20200   0.26850   0.79430   Biso      1.000     H          0.131619  
         H2        1.0000    0.91470   0.82300   0.31390   Biso      1.000     H          0.14004   
         H3        1.0000    0.70200   0.23150   0.29430   Biso      1.000     H          0.13162000000000001           
         H4        1.0000    0.80820   0.73400   0.80200   Biso      1.000     H          0.132686  
         H5        1.0000    0.58530   0.32300   0.18610   Biso      1.000     H          0.140039  
         H6        1.0000    0.41470   0.67700   0.81390   Biso      1.000     H          0.140039  
         H7        1.0000    0.29800   0.76850   0.70570   Biso      1.000     H          0.13162100000000002           
         H8        1.0000    0.30820   0.76600   0.30200   Biso      1.000     H          0.132686  
         H9        1.0000    0.19180   0.26600   0.19800   Biso      1.000     H          0.132686  
         H10       1.0000    0.08530   0.17700   0.68610   Biso      1.000     H          0.14004   
         H11       1.0000    0.69180   0.23400   0.69800   Biso      1.000     H          0.132686  
         H12       1.0000    0.79800   0.73150   0.20570   Biso      1.000     H          0.131619  
         O1        1.0000    0.69510   0.34106   0.83100   Biso      1.000     O          -0.568034           
         O2        1.0000    0.56650   0.08324   0.48170   Biso      1.000     O          -0.606701           
         O3        1.0000    0.79490   0.13343   0.58770   Biso      1.000     O          -0.462129           
         O4        1.0000    0.41110   0.35450   0.87690   Biso      1.000     O          -0.522041           
         O5        1.0000    0.76310   0.90738   0.43330   Biso      1.000     O          -0.5309119999999999           
         O6        1.0000    0.08030   0.00840   0.41020   Biso      1.000     O          -0.720891           
         O7        1.0000    0.91110   0.14550   0.37690   Biso      1.000     O          -0.522039           
         O8        1.0000    0.19510   0.15894   0.33100   Biso      1.000     O          -0.5680310000000001           
         O9        1.0000    0.29490   0.36657   0.08770   Biso      1.000     O          -0.46213000000000004          
         O10       1.0000    0.06650   0.41676   0.98170   Biso      1.000     O          -0.606701           
         O11       1.0000    0.91970   0.99160   0.58980   Biso      1.000     O          -0.720892           
         O12       1.0000    0.73690   0.40738   0.06670   Biso      1.000     O          -0.5309119999999999           
         O13       1.0000    0.58890   0.64550   0.12310   Biso      1.000     O          -0.522041           
         O14       1.0000    0.26310   0.59262   0.93330   Biso      1.000     O          -0.530911           
         O15       1.0000    0.30490   0.65894   0.16900   Biso      1.000     O          -0.568033           
         O16       1.0000    0.43350   0.91676   0.51830   Biso      1.000     O          -0.6067020000000001           
         O17       1.0000    0.58030   0.49160   0.91020   Biso      1.000     O          -0.720892           
         O18       1.0000    0.41970   0.50840   0.08980   Biso      1.000     O          -0.720892           
         O19       1.0000    0.08890   0.85450   0.62310   Biso      1.000     O          -0.522039           
         O20       1.0000    0.80490   0.84106   0.66900   Biso      1.000     O          -0.568032           
         O21       1.0000    0.70510   0.63343   0.91230   Biso      1.000     O          -0.46213000000000004          
         O22       1.0000    0.93350   0.58324   0.01830   Biso      1.000     O          -0.606701           
         O23       1.0000    0.20510   0.86657   0.41230   Biso      1.000     O          -0.462129           
         O24       1.0000    0.23690   0.09262   0.56670   Biso      1.000     O          -0.5309119999999999 