
##########################################################################
#               Crystallographic Information Format file
#               Produced by PyCifRW module
#
#  This is a CIF file.  CIF has been adopted by the International
#  Union of Crystallography as the standard for data archiving and
#  transmission.
#
#  For information on this file format, follow the CIF links at
#  http://www.iucr.org
##########################################################################

data_image0

_cell_length_a                          10.3246
_cell_length_b                          11.3359
_cell_length_c                          22.316
_cell_angle_alpha                       90
_cell_angle_beta                        97.29
_cell_angle_gamma                       90
_symmetry_space_group_name_H-M          'P 1'
_symmetry_int_tables_number             1
loop_
  _symmetry_equiv_pos_as_xyz
         'x, y, z' 
loop_
  _atom_site_label
  _atom_site_occupancy
  _atom_site_fract_x
  _atom_site_fract_y
  _atom_site_fract_z
  _atom_site_thermal_displace_type
  _atom_site_B_iso_or_equiv
  _atom_site_type_symbol
  _atom_site_charge
         C1        1.0000    0.58180   0.31810   0.18040   Biso      1.000     C          0.6479    
         C2        1.0000    0.46270   0.65170   0.20470   Biso      1.000     C          0.47169399999999995           
         C3        1.0000    0.44850   0.63000   0.10620   Biso      1.000     C          -0.00636  
         C4        1.0000    0.32620   0.64920   0.12330   Biso      1.000     C          0.021542  
         C5        1.0000    0.17980   0.14710   0.90180   Biso      1.000     C          -0.570235           
         C6        1.0000    0.33930   0.98960   0.71800   Biso      1.000     C          0.632361  
         C7        1.0000    0.08180   0.18190   0.68040   Biso      1.000     C          0.6479    
         C8        1.0000    0.18760   0.13350   0.83600   Biso      1.000     C          0.460662  
         C9        1.0000    0.25800   0.06820   0.75280   Biso      1.000     C          0.00041   
         C10       1.0000    0.15280   0.14120   0.73840   Biso      1.000     C          -0.020772           
         C11       1.0000    0.19500   0.65110   0.08720   Biso      1.000     C          0.681099  
         C12       1.0000    0.70420   0.08790   0.72310   Biso      1.000     C          0.490545  
         C13       1.0000    0.02470   0.83920   0.76910   Biso      1.000     C          -0.578738           
         C14       1.0000    0.00610   0.88380   0.54870   Biso      1.000     C          0.6751739999999999  
         C15       1.0000    0.69500   0.84890   0.58720   Biso      1.000     C          0.681099  
         C16       1.0000    0.96270   0.84830   0.70470   Biso      1.000     C          0.47169399999999995           
         C17       1.0000    0.94850   0.87000   0.60620   Biso      1.000     C          -0.00636  
         C18       1.0000    0.82620   0.85080   0.62330   Biso      1.000     C          0.021543  
         C19       1.0000    0.32020   0.64710   0.59820   Biso      1.000     C          -0.570235           
         C20       1.0000    0.16070   0.48960   0.78200   Biso      1.000     C          0.632361  
         C21       1.0000    0.31240   0.63350   0.66400   Biso      1.000     C          0.460662  
         C22       1.0000    0.76440   0.04190   0.78500   Biso      1.000     C          0.491753  
         C23       1.0000    0.24200   0.56820   0.74720   Biso      1.000     C          0.00041   
         C24       1.0000    0.50610   0.61620   0.04870   Biso      1.000     C          0.6751739999999999  
         C25       1.0000    0.26440   0.45810   0.28500   Biso      1.000     C          0.491752  
         C26       1.0000    0.82020   0.85290   0.09820   Biso      1.000     C          -0.570235           
         C27       1.0000    0.66070   0.01040   0.28200   Biso      1.000     C          0.632361  
         C28       1.0000    0.91820   0.81810   0.31960   Biso      1.000     C          0.6479    
         C29       1.0000    0.81240   0.86650   0.16400   Biso      1.000     C          0.460662  
         C30       1.0000    0.74200   0.93180   0.24720   Biso      1.000     C          0.00040899999999999997        
         C31       1.0000    0.84720   0.85880   0.26160   Biso      1.000     C          -0.020772           
         C32       1.0000    0.29580   0.91210   0.27690   Biso      1.000     C          0.490545  
         C33       1.0000    0.23560   0.95810   0.21500   Biso      1.000     C          0.491752  
         C34       1.0000    0.97530   0.16080   0.23090   Biso      1.000     C          -0.578738           
         C35       1.0000    0.52470   0.66080   0.26910   Biso      1.000     C          -0.578738           
         C36       1.0000    0.99390   0.11620   0.45130   Biso      1.000     C          0.6751739999999999  
         C37       1.0000    0.03730   0.15170   0.29530   Biso      1.000     C          0.47169300000000003           
         C38       1.0000    0.05150   0.13000   0.39380   Biso      1.000     C          -0.00636  
         C39       1.0000    0.17380   0.14920   0.37670   Biso      1.000     C          0.021542  
         C40       1.0000    0.67980   0.35290   0.40180   Biso      1.000     C          -0.570235           
         C41       1.0000    0.83930   0.51040   0.21800   Biso      1.000     C          0.632361  
         C42       1.0000    0.68760   0.36650   0.33600   Biso      1.000     C          0.460662  
         C43       1.0000    0.75800   0.43180   0.25280   Biso      1.000     C          0.00040899999999999997        
         C44       1.0000    0.65280   0.35880   0.23840   Biso      1.000     C          -0.020772           
         C45       1.0000    0.20420   0.41210   0.22310   Biso      1.000     C          0.490545  
         C46       1.0000    0.30500   0.15110   0.41280   Biso      1.000     C          0.681099  
         C47       1.0000    0.34720   0.64120   0.76160   Biso      1.000     C          -0.020772           
         C48       1.0000    0.41820   0.68190   0.81960   Biso      1.000     C          0.6479    
         C49       1.0000    0.73560   0.54190   0.71500   Biso      1.000     C          0.491752  
         C50       1.0000    0.47530   0.33920   0.73090   Biso      1.000     C          -0.578738           
         C51       1.0000    0.49390   0.38380   0.95130   Biso      1.000     C          0.6751739999999999  
         C52       1.0000    0.80500   0.34890   0.91280   Biso      1.000     C          0.681099  
         C53       1.0000    0.53730   0.34830   0.79530   Biso      1.000     C          0.47169300000000003           
         C54       1.0000    0.55150   0.37000   0.89380   Biso      1.000     C          -0.00636  
         C55       1.0000    0.67380   0.35080   0.87670   Biso      1.000     C          0.021542  
         C56       1.0000    0.79580   0.58790   0.77690   Biso      1.000     C          0.490545  
         H1        1.0000    0.12160   0.08870   0.91440   Biso      1.000     H          0.198908  
         H2        1.0000    0.11450   0.81660   0.77010   Biso      1.000     H          0.16353   
         H3        1.0000    0.97940   0.78100   0.78980   Biso      1.000     H          0.20177   
         H4        1.0000    0.33630   0.02280   0.83530   Biso      1.000     H          0.329505  
         H5        1.0000    0.11540   0.87670   0.66170   Biso      1.000     H          0.315157  
         H6        1.0000    0.35230   0.72440   0.59060   Biso      1.000     H          0.19403399999999998           
         H7        1.0000    0.48030   0.41430   0.71140   Biso      1.000     H          0.194415  
         H8        1.0000    0.37840   0.58870   0.58560   Biso      1.000     H          0.198908  
         H9        1.0000    0.26510   0.13690   0.92390   Biso      1.000     H          0.182552  
         H10       1.0000    0.38550   0.31660   0.72990   Biso      1.000     H          0.16353   
         H11       1.0000    0.52060   0.28100   0.71020   Biso      1.000     H          0.20177   
         H12       1.0000    0.16370   0.52280   0.66470   Biso      1.000     H          0.329505  
         H13       1.0000    0.38460   0.37670   0.83830   Biso      1.000     H          0.315157  
         H14       1.0000    0.23490   0.63690   0.57610   Biso      1.000     H          0.182552  
         H15       1.0000    0.14770   0.22440   0.90940   Biso      1.000     H          0.19403399999999998           
         H16       1.0000    0.01970   0.91430   0.78860   Biso      1.000     H          0.194415  
         H17       1.0000    0.83630   0.47720   0.33530   Biso      1.000     H          0.329505  
         H18       1.0000    0.61540   0.62330   0.16170   Biso      1.000     H          0.315157  
         H19       1.0000    0.73490   0.86310   0.07610   Biso      1.000     H          0.182552  
         H20       1.0000    0.87840   0.91130   0.08560   Biso      1.000     H          0.198908  
         H21       1.0000    0.98030   0.08570   0.21140   Biso      1.000     H          0.194415  
         H22       1.0000    0.88550   0.18340   0.22990   Biso      1.000     H          0.16353   
         H23       1.0000    0.02060   0.21900   0.21020   Biso      1.000     H          0.20177   
         H24       1.0000    0.66370   0.97720   0.16470   Biso      1.000     H          0.329505  
         H25       1.0000    0.85230   0.77560   0.09060   Biso      1.000     H          0.19403399999999998           
         H26       1.0000    0.64770   0.27560   0.40940   Biso      1.000     H          0.19403399999999998           
         H27       1.0000    0.76510   0.36310   0.42390   Biso      1.000     H          0.182551  
         H28       1.0000    0.62160   0.41130   0.41440   Biso      1.000     H          0.198908  
         H29       1.0000    0.51970   0.58570   0.28860   Biso      1.000     H          0.194415  
         H30       1.0000    0.61450   0.68340   0.27010   Biso      1.000     H          0.16353   
         H31       1.0000    0.47940   0.71900   0.28980   Biso      1.000     H          0.20177   
         H32       1.0000    0.88460   0.12330   0.33830   Biso      1.000     H          0.315157  
         N1        1.0000    0.33710   0.66300   0.18450   Biso      1.000     N          -0.44033199999999995          
         N2        1.0000    0.03220   0.86750   0.65860   Biso      1.000     N          -0.318497           
         N3        1.0000    0.83710   0.83700   0.68450   Biso      1.000     N          -0.44033199999999995          
         N4        1.0000    0.22290   0.56350   0.68600   Biso      1.000     N          -0.32415  
         N5        1.0000    0.39050   0.68120   0.70910   Biso      1.000     N          -0.466504           
         N6        1.0000    0.46780   0.36750   0.84140   Biso      1.000     N          -0.318497           
         N7        1.0000    0.66290   0.33700   0.81550   Biso      1.000     N          -0.44033199999999995          
         N8        1.0000    0.16290   0.16300   0.31550   Biso      1.000     N          -0.44033199999999995          
         N9        1.0000    0.89050   0.81880   0.20910   Biso      1.000     N          -0.466504           
         N10       1.0000    0.96780   0.13250   0.34140   Biso      1.000     N          -0.318497           
         N11       1.0000    0.77710   0.43650   0.31400   Biso      1.000     N          -0.32415  
         N12       1.0000    0.60950   0.31880   0.29090   Biso      1.000     N          -0.466504           
         N13       1.0000    0.53220   0.63250   0.15860   Biso      1.000     N          -0.318497           
         N14       1.0000    0.10950   0.18120   0.79090   Biso      1.000     N          -0.466504           
         N15       1.0000    0.72290   0.93650   0.18600   Biso      1.000     N          -0.32415  
         N16       1.0000    0.27710   0.06350   0.81400   Biso      1.000     N          -0.32415  
         Nd1       1.0000    0.89090   0.30963   0.77457   Biso      1.000     Nd          1.9621549999999999  
         Nd2       1.0000    0.73839   0.91741   0.43550   Biso      1.000     Nd          2.215477  
         Nd3       1.0000    0.39090   0.19037   0.27457   Biso      1.000     Nd          1.9621549999999999  
         Nd4       1.0000    0.76161   0.41741   0.06450   Biso      1.000     Nd          2.215477  
         Nd5       1.0000    0.10910   0.69037   0.22543   Biso      1.000     Nd          1.9621549999999999  
         Nd6       1.0000    0.26161   0.08259   0.56450   Biso      1.000     Nd          2.215478  
         Nd7       1.0000    0.60910   0.80963   0.72543   Biso      1.000     Nd          1.9621549999999999  
         Nd8       1.0000    0.23839   0.58259   0.93550   Biso      1.000     Nd          2.215478  
         O1        1.0000    0.47810   0.26230   0.18215   Biso      1.000     O          -0.549029           
         O2        1.0000    0.23110   0.30860   0.20953   Biso      1.000     O          -0.5873619999999999           
         O3        1.0000    0.13170   0.48120   0.19039   Biso      1.000     O          -0.632436           
         O4        1.0000    0.34220   0.39080   0.31572   Biso      1.000     O          -0.6190220000000001           
         O5        1.0000    0.43730   0.63430   0.99877   Biso      1.000     O          -0.672539           
         O6        1.0000    0.62450   0.58950   0.05439   Biso      1.000     O          -0.678916           
         O7        1.0000    0.62490   0.34130   0.13160   Biso      1.000     O          -0.7408640000000001           
         O8        1.0000    0.18020   0.62520   0.03236   Biso      1.000     O          -0.788665           
         O9        1.0000    0.23190   0.55860   0.30107   Biso      1.000     O          -0.583264           
         O10       1.0000    0.81460   0.51880   0.16183   Biso      1.000     O          -0.7511479999999999           
         O11       1.0000    0.06270   0.13430   0.50123   Biso      1.000     O          -0.672539           
         O12       1.0000    0.40010   0.17890   0.38456   Biso      1.000     O          -0.605072           
         O13       1.0000    0.31980   0.12520   0.46764   Biso      1.000     O          -0.788665           
         O14       1.0000    0.09990   0.67890   0.11544   Biso      1.000     O          -0.605072           
         O15       1.0000    0.87550   0.08950   0.44561   Biso      1.000     O          -0.678916           
         O16       1.0000    0.26810   0.05860   0.19893   Biso      1.000     O          -0.583264           
         O17       1.0000    0.15780   0.89080   0.18428   Biso      1.000     O          -0.6190220000000001           
         O18       1.0000    0.36830   0.98120   0.30961   Biso      1.000     O          -0.632436           
         O19       1.0000    0.26890   0.80860   0.29047   Biso      1.000     O          -0.5873619999999999           
         O20       1.0000    0.02190   0.76230   0.31785   Biso      1.000     O          -0.549029           
         O21       1.0000    0.87510   0.84130   0.36840   Biso      1.000     O          -0.7408640000000001           
         O22       1.0000    0.92640   0.56440   0.24969   Biso      1.000     O          -0.596738           
         O23       1.0000    0.42640   0.93560   0.74969   Biso      1.000     O          -0.596738           
         O24       1.0000    0.97810   0.23770   0.68215   Biso      1.000     O          -0.549029           
         O25       1.0000    0.12490   0.15870   0.63160   Biso      1.000     O          -0.7408640000000001           
         O26       1.0000    0.90010   0.32110   0.88456   Biso      1.000     O          -0.605072           
         O27       1.0000    0.81980   0.37480   0.96764   Biso      1.000     O          -0.788664           
         O28       1.0000    0.56270   0.36570   0.00123   Biso      1.000     O          -0.672539           
         O29       1.0000    0.37550   0.41050   0.94561   Biso      1.000     O          -0.678916           
         O30       1.0000    0.76810   0.44140   0.69893   Biso      1.000     O          -0.583264           
         O31       1.0000    0.65780   0.60920   0.68428   Biso      1.000     O          -0.6190220000000001           
         O32       1.0000    0.86830   0.51880   0.80961   Biso      1.000     O          -0.632436           
         O33       1.0000    0.76890   0.69140   0.79047   Biso      1.000     O          -0.5873619999999999           
         O34       1.0000    0.52190   0.73770   0.81785   Biso      1.000     O          -0.549029           
         O35       1.0000    0.37510   0.65870   0.86840   Biso      1.000     O          -0.7408640000000001           
         O36       1.0000    0.18540   0.48120   0.83817   Biso      1.000     O          -0.7511479999999999           
         O37       1.0000    0.07360   0.43560   0.75031   Biso      1.000     O          -0.596738           
         O38       1.0000    0.59990   0.82110   0.61544   Biso      1.000     O          -0.605072           
         O39       1.0000    0.68020   0.87480   0.53236   Biso      1.000     O          -0.788664           
         O40       1.0000    0.93730   0.86570   0.49877   Biso      1.000     O          -0.672539           
         O41       1.0000    0.12450   0.91050   0.55439   Biso      1.000     O          -0.678916           
         O42       1.0000    0.73190   0.94140   0.80107   Biso      1.000     O          -0.583264           
         O43       1.0000    0.84220   0.10920   0.81572   Biso      1.000     O          -0.6190220000000001           
         O44       1.0000    0.63170   0.01880   0.69039   Biso      1.000     O          -0.6324350000000001           
         O45       1.0000    0.73110   0.19140   0.70953   Biso      1.000     O          -0.5873619999999999           
         O46       1.0000    0.68540   0.01880   0.33817   Biso      1.000     O          -0.7511479999999999           
         O47       1.0000    0.31460   0.98120   0.66183   Biso      1.000     O          -0.7511479999999999           
         O48       1.0000    0.57360   0.06440   0.25031   Biso      1.000     O          -0.596738 