
##########################################################################
#               Crystallographic Information Format file
#               Produced by PyCifRW module
#
#  This is a CIF file.  CIF has been adopted by the International
#  Union of Crystallography as the standard for data archiving and
#  transmission.
#
#  For information on this file format, follow the CIF links at
#  http://www.iucr.org
##########################################################################

data_image0

_cell_length_a                          11.9
_cell_length_b                          12.494
_cell_length_c                          12.539
_cell_angle_alpha                       90
_cell_angle_beta                        98.76
_cell_angle_gamma                       90
_symmetry_space_group_name_H-M          'P 1'
_symmetry_int_tables_number             1
loop_
  _symmetry_equiv_pos_as_xyz
         'x, y, z' 
loop_
  _atom_site_label
  _atom_site_occupancy
  _atom_site_fract_x
  _atom_site_fract_y
  _atom_site_fract_z
  _atom_site_thermal_displace_type
  _atom_site_B_iso_or_equiv
  _atom_site_type_symbol
  _atom_site_charge
         C1        1.0000    0.51462   0.66228   0.51052   Biso      1.000     C          -0.005064           
         C2        1.0000    0.61186   0.62474   0.47222   Biso      1.000     C          -0.238784           
         C3        1.0000    0.61370   0.62966   0.36118   Biso      1.000     C          0.278296  
         C4        1.0000    0.51788   0.66564   0.29025   Biso      1.000     C          -0.351778           
         C5        1.0000    0.42017   0.69839   0.33170   Biso      1.000     C          0.282403  
         C6        1.0000    0.41895   0.70047   0.44265   Biso      1.000     C          -0.236564           
         C7        1.0000    0.51114   0.66161   0.62804   Biso      1.000     C          0.661677  
         C8        1.0000    0.72143   0.61863   0.21570   Biso      1.000     C          0.079051  
         C9        1.0000    0.64483   0.54049   0.14164   Biso      1.000     C          0.657843  
         C10       1.0000    0.84550   0.60725   0.20216   Biso      1.000     C          -0.409194           
         C11       1.0000    0.30627   0.70382   0.15594   Biso      1.000     C          0.080433  
         C12       1.0000    0.36703   0.78572   0.09451   Biso      1.000     C          0.662209  
         C13       1.0000    0.17928   0.70215   0.11458   Biso      1.000     C          -0.404598           
         C14       1.0000    0.97601   0.45395   0.90841   Biso      1.000     C          0.015504  
         C15       1.0000    0.03440   0.45117   0.01353   Biso      1.000     C          -0.225035           
         C16       1.0000    0.15084   0.42868   0.02989   Biso      1.000     C          0.28511   
         C17       1.0000    0.20850   0.40901   0.94222   Biso      1.000     C          -0.339179           
         C18       1.0000    0.14655   0.41100   0.83714   Biso      1.000     C          0.277717  
         C19       1.0000    0.03039   0.43326   0.81897   Biso      1.000     C          -0.219108           
         C20       1.0000    0.85250   0.48069   0.89165   Biso      1.000     C          0.564478  
         C21       1.0000    0.31216   0.42856   0.75103   Biso      1.000     C          0.093948  
         C22       1.0000    0.32561   0.54417   0.79238   Biso      1.000     C          0.586859  
         C23       1.0000    0.34152   0.42079   0.63729   Biso      1.000     C          -0.405032           
         C24       1.0000    0.31720   0.40066   0.16424   Biso      1.000     C          0.084083  
         C25       1.0000    0.33403   0.28441   0.13360   Biso      1.000     C          0.594129  
         C26       1.0000    0.34698   0.41426   0.28607   Biso      1.000     C          -0.404835           
         C27       1.0000    0.48538   0.16228   0.48948   Biso      1.000     C          -0.005064           
         C28       1.0000    0.38814   0.12474   0.52778   Biso      1.000     C          -0.238784           
         C29       1.0000    0.38630   0.12966   0.63882   Biso      1.000     C          0.278296  
         C30       1.0000    0.48212   0.16564   0.70975   Biso      1.000     C          -0.351778           
         C31       1.0000    0.57983   0.19839   0.66830   Biso      1.000     C          0.282403  
         C32       1.0000    0.58105   0.20047   0.55735   Biso      1.000     C          -0.236564           
         C33       1.0000    0.48886   0.16161   0.37196   Biso      1.000     C          0.661677  
         C34       1.0000    0.27857   0.11863   0.78430   Biso      1.000     C          0.079051  
         C35       1.0000    0.35517   0.04049   0.85836   Biso      1.000     C          0.657843  
         C36       1.0000    0.15450   0.10725   0.79784   Biso      1.000     C          -0.409194           
         C37       1.0000    0.69373   0.20382   0.84406   Biso      1.000     C          0.080433  
         C38       1.0000    0.63297   0.28572   0.90549   Biso      1.000     C          0.662209  
         C39       1.0000    0.82072   0.20215   0.88542   Biso      1.000     C          -0.404598           
         C40       1.0000    0.02399   0.95395   0.09159   Biso      1.000     C          0.015504  
         C41       1.0000    0.96560   0.95117   0.98647   Biso      1.000     C          -0.225035           
         C42       1.0000    0.84916   0.92868   0.97011   Biso      1.000     C          0.28511   
         C43       1.0000    0.79150   0.90901   0.05778   Biso      1.000     C          -0.339179           
         C44       1.0000    0.85345   0.91100   0.16286   Biso      1.000     C          0.277717  
         C45       1.0000    0.96961   0.93326   0.18103   Biso      1.000     C          -0.219108           
         C46       1.0000    0.14750   0.98069   0.10835   Biso      1.000     C          0.564478  
         C47       1.0000    0.68784   0.92856   0.24897   Biso      1.000     C          0.093948  
         C48       1.0000    0.67439   0.04417   0.20762   Biso      1.000     C          0.586859  
         C49       1.0000    0.65848   0.92079   0.36271   Biso      1.000     C          -0.405032           
         C50       1.0000    0.68280   0.90066   0.83576   Biso      1.000     C          0.084083  
         C51       1.0000    0.66597   0.78441   0.86640   Biso      1.000     C          0.594129  
         C52       1.0000    0.65302   0.91426   0.71393   Biso      1.000     C          -0.404835           
         H1        1.0000    0.68573   0.59580   0.52730   Biso      1.000     H          0.152648  
         H2        1.0000    0.51877   0.66928   0.20356   Biso      1.000     H          0.122655  
         H3        1.0000    0.34280   0.72636   0.47453   Biso      1.000     H          0.141621  
         H4        1.0000    0.69183   0.70118   0.19417   Biso      1.000     H          0.065988  
         H5        1.0000    0.89623   0.66686   0.25354   Biso      1.000     H          0.145345  
         H6        1.0000    0.85514   0.62022   0.11696   Biso      1.000     H          0.150237  
         H7        1.0000    0.87671   0.52654   0.22606   Biso      1.000     H          0.130942  
         H8        1.0000    0.34514   0.62471   0.14274   Biso      1.000     H          0.067107  
         H9        1.0000    0.13884   0.64271   0.16128   Biso      1.000     H          0.1428    
         H10       1.0000    0.16286   0.68029   0.02822   Biso      1.000     H          0.138225  
         H11       1.0000    0.14088   0.78054   0.12515   Biso      1.000     H          0.133515  
         H12       1.0000    0.99119   0.46711   0.08280   Biso      1.000     H          0.132729  
         H13       1.0000    0.29980   0.39219   0.95441   Biso      1.000     H          0.131827  
         H14       1.0000    0.98446   0.43769   0.73679   Biso      1.000     H          0.146091  
         H15       1.0000    0.37103   0.37800   0.80736   Biso      1.000     H          0.063455  
         H16       1.0000    0.32250   0.33931   0.60589   Biso      1.000     H          0.142254  
         H17       1.0000    0.43308   0.43586   0.63751   Biso      1.000     H          0.140331  
         H18       1.0000    0.29085   0.47820   0.58341   Biso      1.000     H          0.14153   
         H19       1.0000    0.37274   0.45139   0.12060   Biso      1.000     H          0.068131  
         H20       1.0000    0.32773   0.49679   0.30842   Biso      1.000     H          0.142267  
         H21       1.0000    0.43821   0.39918   0.31417   Biso      1.000     H          0.133528  
         H22       1.0000    0.29603   0.35880   0.32743   Biso      1.000     H          0.149174  
         H23       1.0000    0.31427   0.09580   0.47270   Biso      1.000     H          0.152648  
         H24       1.0000    0.48123   0.16928   0.79644   Biso      1.000     H          0.122655  
         H25       1.0000    0.65720   0.22636   0.52547   Biso      1.000     H          0.141621  
         H26       1.0000    0.30817   0.20118   0.80583   Biso      1.000     H          0.065988  
         H27       1.0000    0.10377   0.16686   0.74646   Biso      1.000     H          0.145345  
         H28       1.0000    0.14486   0.12022   0.88304   Biso      1.000     H          0.150237  
         H29       1.0000    0.12329   0.02654   0.77394   Biso      1.000     H          0.130942  
         H30       1.0000    0.65486   0.12471   0.85726   Biso      1.000     H          0.067107  
         H31       1.0000    0.86116   0.14271   0.83872   Biso      1.000     H          0.1428    
         H32       1.0000    0.83714   0.18029   0.97178   Biso      1.000     H          0.138225  
         H33       1.0000    0.85912   0.28054   0.87485   Biso      1.000     H          0.133515  
         H34       1.0000    0.00881   0.96711   0.91720   Biso      1.000     H          0.132729  
         H35       1.0000    0.70020   0.89219   0.04559   Biso      1.000     H          0.131827  
         H36       1.0000    0.01554   0.93769   0.26321   Biso      1.000     H          0.146091  
         H37       1.0000    0.62897   0.87800   0.19264   Biso      1.000     H          0.063455  
         H38       1.0000    0.67750   0.83931   0.39411   Biso      1.000     H          0.142254  
         H39       1.0000    0.56692   0.93586   0.36249   Biso      1.000     H          0.140331  
         H40       1.0000    0.70915   0.97820   0.41659   Biso      1.000     H          0.14153   
         H41       1.0000    0.62726   0.95139   0.87940   Biso      1.000     H          0.068131  
         H42       1.0000    0.67227   0.99679   0.69158   Biso      1.000     H          0.142267  
         H43       1.0000    0.56179   0.89918   0.68583   Biso      1.000     H          0.133528  
         H44       1.0000    0.70397   0.85880   0.67257   Biso      1.000     H          0.149174  
         O1        1.0000    0.43559   0.72141   0.66221   Biso      1.000     O          -0.720556           
         O2        1.0000    0.58188   0.60336   0.68893   Biso      1.000     O          -0.663047           
         O3        1.0000    0.71466   0.59958   0.32788   Biso      1.000     O          -0.216744           
         O4        1.0000    0.62933   0.44689   0.17868   Biso      1.000     O          -0.725796           
         O5        1.0000    0.60179   0.57500   0.04905   Biso      1.000     O          -0.653247           
         O6        1.0000    0.31906   0.72671   0.26909   Biso      1.000     O          -0.209797           
         O7        1.0000    0.36794   0.76078   0.99548   Biso      1.000     O          -0.708021           
         O8        1.0000    0.41089   0.86912   0.14054   Biso      1.000     O          -0.657683           
         O9        1.0000    0.79936   0.49998   0.79658   Biso      1.000     O          -0.614595           
         O10       1.0000    0.79981   0.48360   0.97482   Biso      1.000     O          -0.664268           
         O11       1.0000    0.20030   0.43049   0.13705   Biso      1.000     O          -0.214265           
         O12       1.0000    0.25313   0.21908   0.11984   Biso      1.000     O          -0.555848           
         O13       1.0000    0.43746   0.25544   0.12550   Biso      1.000     O          -0.773937           
         O14       1.0000    0.19650   0.39225   0.74564   Biso      1.000     O          -0.224069           
         O15       1.0000    0.24641   0.61308   0.76915   Biso      1.000     O          -0.614861           
         O16       1.0000    0.42283   0.57034   0.84809   Biso      1.000     O          -0.752092           
         O17       1.0000    0.56441   0.22141   0.33779   Biso      1.000     O          -0.720556           
         O18       1.0000    0.41812   0.10336   0.31107   Biso      1.000     O          -0.663047           
         O19       1.0000    0.28534   0.09958   0.67212   Biso      1.000     O          -0.216744           
         O20       1.0000    0.37067   0.94689   0.82132   Biso      1.000     O          -0.725796           
         O21       1.0000    0.39821   0.07500   0.95095   Biso      1.000     O          -0.653247           
         O22       1.0000    0.68094   0.22671   0.73091   Biso      1.000     O          -0.209797           
         O23       1.0000    0.63206   0.26078   0.00452   Biso      1.000     O          -0.708021           
         O24       1.0000    0.58911   0.36912   0.85946   Biso      1.000     O          -0.657683           
         O25       1.0000    0.20064   0.99998   0.20342   Biso      1.000     O          -0.614595           
         O26       1.0000    0.20019   0.98360   0.02518   Biso      1.000     O          -0.664268           
         O27       1.0000    0.79970   0.93049   0.86295   Biso      1.000     O          -0.214265           
         O28       1.0000    0.74687   0.71908   0.88016   Biso      1.000     O          -0.555848           
         O29       1.0000    0.56254   0.75544   0.87450   Biso      1.000     O          -0.773937           
         O30       1.0000    0.80350   0.89225   0.25436   Biso      1.000     O          -0.224069           
         O31       1.0000    0.75359   0.11308   0.23085   Biso      1.000     O          -0.614861           
         O32       1.0000    0.57717   0.07034   0.15191   Biso      1.000     O          -0.752092           
         Sm1       1.0000    0.63093   0.55237   0.86963   Biso      1.000     Sm          2.091876  
         Sm2       1.0000    0.37493   0.76398   0.82030   Biso      1.000     Sm          2.129978  
         Sm3       1.0000    0.36907   0.05237   0.13037   Biso      1.000     Sm          2.091876  
         Sm4       1.0000    0.62507   0.26398   0.17970   Biso      1.000     Sm          2.129978 