
##########################################################################
#               Crystallographic Information Format file
#               Produced by PyCifRW module
#
#  This is a CIF file.  CIF has been adopted by the International
#  Union of Crystallography as the standard for data archiving and
#  transmission.
#
#  For information on this file format, follow the CIF links at
#  http://www.iucr.org
##########################################################################

data_image0

_cell_length_a                          11.878
_cell_length_b                          12.419
_cell_length_c                          12.489
_cell_angle_alpha                       90
_cell_angle_beta                        98.63
_cell_angle_gamma                       90
_symmetry_space_group_name_H-M          'P 1'
_symmetry_int_tables_number             1
loop_
  _symmetry_equiv_pos_as_xyz
         'x, y, z' 
loop_
  _atom_site_label
  _atom_site_occupancy
  _atom_site_fract_x
  _atom_site_fract_y
  _atom_site_fract_z
  _atom_site_thermal_displace_type
  _atom_site_B_iso_or_equiv
  _atom_site_type_symbol
  _atom_site_charge
         C1        1.0000    0.51790   0.66050   0.51170   Biso      1.000     C          0.017356  
         C2        1.0000    0.68630   0.92850   0.24990   Biso      1.000     C          0.098378  
         C3        1.0000    0.85230   0.47970   0.88920   Biso      1.000     C          0.581803  
         C4        1.0000    0.31370   0.42850   0.75010   Biso      1.000     C          0.098378  
         C5        1.0000    0.14770   0.97970   0.11080   Biso      1.000     C          0.581803  
         C6        1.0000    0.48060   0.16580   0.71060   Biso      1.000     C          -0.386549           
         C7        1.0000    0.34440   0.42140   0.63540   Biso      1.000     C          -0.49915299999999996          
         C8        1.0000    0.96750   0.93470   0.18180   Biso      1.000     C          -0.27074000000000004          
         C9        1.0000    0.85230   0.91380   0.16430   Biso      1.000     C          0.306253  
         C10       1.0000    0.31660   0.40040   0.16100   Biso      1.000     C          0.099689  
         C11       1.0000    0.33640   0.28270   0.13380   Biso      1.000     C          0.610115  
         C12       1.0000    0.34580   0.41610   0.28140   Biso      1.000     C          -0.501776           
         C13       1.0000    0.79220   0.91020   0.06000   Biso      1.000     C          -0.389833           
         C14       1.0000    0.03250   0.43470   0.81820   Biso      1.000     C          -0.27074000000000004          
         C15       1.0000    0.84930   0.92810   0.97190   Biso      1.000     C          0.312407  
         C16       1.0000    0.02280   0.95320   0.09260   Biso      1.000     C          0.037708  
         C17       1.0000    0.81680   0.20110   0.88160   Biso      1.000     C          -0.501963           
         C18       1.0000    0.63060   0.28840   0.90610   Biso      1.000     C          0.677759  
         C19       1.0000    0.69010   0.20520   0.84280   Biso      1.000     C          0.089179  
         C20       1.0000    0.15550   0.10650   0.80140   Biso      1.000     C          -0.504491           
         C21       1.0000    0.35650   0.04220   0.86260   Biso      1.000     C          0.669712  
         C22       1.0000    0.27870   0.11890   0.78690   Biso      1.000     C          0.082208  
         C23       1.0000    0.48490   0.15910   0.36910   Biso      1.000     C          0.667417  
         C24       1.0000    0.57760   0.19790   0.55740   Biso      1.000     C          -0.274726           
         C25       1.0000    0.57760   0.19640   0.66770   Biso      1.000     C          0.309096  
         C26       1.0000    0.48210   0.16050   0.48830   Biso      1.000     C          0.017355000000000002          
         C27       1.0000    0.38640   0.12520   0.53010   Biso      1.000     C          -0.274952           
         C28       1.0000    0.96460   0.95010   0.98840   Biso      1.000     C          -0.270642           
         C29       1.0000    0.14770   0.41380   0.83570   Biso      1.000     C          0.306253  
         C30       1.0000    0.33110   0.54360   0.79130   Biso      1.000     C          0.6147090000000001  
         C31       1.0000    0.20780   0.41020   0.94000   Biso      1.000     C          -0.389833           
         C32       1.0000    0.61360   0.62520   0.46990   Biso      1.000     C          -0.274952           
         C33       1.0000    0.61320   0.63000   0.35910   Biso      1.000     C          0.301031  
         C34       1.0000    0.51940   0.66580   0.28940   Biso      1.000     C          -0.386548           
         C35       1.0000    0.42240   0.69640   0.33230   Biso      1.000     C          0.309096  
         C36       1.0000    0.42240   0.69790   0.44260   Biso      1.000     C          -0.274727           
         C37       1.0000    0.51510   0.65910   0.63090   Biso      1.000     C          0.667417  
         C38       1.0000    0.72130   0.61890   0.21310   Biso      1.000     C          0.082208  
         C39       1.0000    0.65420   0.91610   0.71860   Biso      1.000     C          -0.501776           
         C40       1.0000    0.64350   0.54220   0.13740   Biso      1.000     C          0.669712  
         C41       1.0000    0.84450   0.60650   0.19860   Biso      1.000     C          -0.504491           
         C42       1.0000    0.66360   0.78270   0.86620   Biso      1.000     C          0.610115  
         C43       1.0000    0.68340   0.90040   0.83900   Biso      1.000     C          0.099689  
         C44       1.0000    0.38680   0.13000   0.64090   Biso      1.000     C          0.301033  
         C45       1.0000    0.15070   0.42810   0.02810   Biso      1.000     C          0.312407  
         C46       1.0000    0.36940   0.78840   0.09390   Biso      1.000     C          0.677759  
         C47       1.0000    0.18320   0.70110   0.11840   Biso      1.000     C          -0.501963           
         C48       1.0000    0.66890   0.04360   0.20870   Biso      1.000     C          0.6147090000000001  
         C49       1.0000    0.03540   0.45010   0.01160   Biso      1.000     C          -0.27064299999999997          
         C50       1.0000    0.97720   0.45320   0.90740   Biso      1.000     C          0.037709  
         C51       1.0000    0.65560   0.92140   0.36460   Biso      1.000     C          -0.49915299999999996          
         C52       1.0000    0.30990   0.70520   0.15720   Biso      1.000     C          0.089179  
         H1        1.0000    0.71450   0.89600   0.04900   Biso      1.000     H          0.145016  
         H2        1.0000    0.69620   0.86560   0.68190   Biso      1.000     H          0.17264000000000002           
         H3        1.0000    0.47910   0.16930   0.78480   Biso      1.000     H          0.137638  
         H4        1.0000    0.64050   0.22360   0.52920   Biso      1.000     H          0.144398  
         H5        1.0000    0.57400   0.90480   0.69690   Biso      1.000     H          0.160931  
         H6        1.0000    0.30220   0.19320   0.80450   Biso      1.000     H          0.075391  
         H7        1.0000    0.67360   0.98810   0.70020   Biso      1.000     H          0.16766   
         H8        1.0000    0.14870   0.11400   0.87670   Biso      1.000     H          0.182668  
         H9        1.0000    0.12860   0.03670   0.77640   Biso      1.000     H          0.152326  
         H10       1.0000    0.67400   0.85090   0.39370   Biso      1.000     H          0.170537  
         H11       1.0000    0.65780   0.13410   0.85350   Biso      1.000     H          0.071056  
         H12       1.0000    0.57560   0.93440   0.36220   Biso      1.000     H          0.16864300000000002           
         H13       1.0000    0.00760   0.93640   0.25180   Biso      1.000     H          0.14892   
         H14       1.0000    0.85020   0.14450   0.84450   Biso      1.000     H          0.17014300000000002           
         H15       1.0000    0.63760   0.87960   0.20180   Biso      1.000     H          0.069328  
         H16       1.0000    0.85060   0.26870   0.86700   Biso      1.000     H          0.163326  
         H17       1.0000    0.00270   0.96280   0.92970   Biso      1.000     H          0.138914  
         H18       1.0000    0.69800   0.97440   0.40990   Biso      1.000     H          0.16843   
         H19       1.0000    0.63610   0.94730   0.87700   Biso      1.000     H          0.070625  
         H20       1.0000    0.11070   0.16100   0.76040   Biso      1.000     H          0.174903  
         H21       1.0000    0.83020   0.18740   0.95820   Biso      1.000     H          0.164998  
         H22       1.0000    0.20620   0.84410   0.59150   Biso      1.000     H          0.5097550000000001  
         H23       1.0000    0.76090   0.39620   0.31050   Biso      1.000     H          0.425854  
         H24       1.0000    0.36390   0.44730   0.12300   Biso      1.000     H          0.070625  
         H25       1.0000    0.30200   0.47440   0.59010   Biso      1.000     H          0.16843   
         H26       1.0000    0.42440   0.43440   0.63780   Biso      1.000     H          0.16864300000000002           
         H27       1.0000    0.32600   0.35090   0.60630   Biso      1.000     H          0.170537  
         H28       1.0000    0.36240   0.37960   0.79820   Biso      1.000     H          0.069328  
         H29       1.0000    0.32340   0.09890   0.48440   Biso      1.000     H          0.15402000000000002           
         H30       1.0000    0.28550   0.39600   0.95100   Biso      1.000     H          0.145016  
         H31       1.0000    0.99730   0.46280   0.07030   Biso      1.000     H          0.138915  
         H32       1.0000    0.14940   0.76870   0.13300   Biso      1.000     H          0.163326  
         H33       1.0000    0.16980   0.68740   0.04180   Biso      1.000     H          0.164998  
         H34       1.0000    0.14980   0.64450   0.15550   Biso      1.000     H          0.17014300000000002           
         H35       1.0000    0.34220   0.63410   0.14650   Biso      1.000     H          0.071056  
         H36       1.0000    0.87140   0.53670   0.22360   Biso      1.000     H          0.152325  
         H37       1.0000    0.85130   0.61400   0.12330   Biso      1.000     H          0.182668  
         H38       1.0000    0.88930   0.66100   0.23960   Biso      1.000     H          0.174903  
         H39       1.0000    0.69780   0.69320   0.19550   Biso      1.000     H          0.075391  
         H40       1.0000    0.35950   0.72360   0.47080   Biso      1.000     H          0.144398  
         H41       1.0000    0.52090   0.66930   0.21520   Biso      1.000     H          0.137638  
         H42       1.0000    0.67660   0.59890   0.51560   Biso      1.000     H          0.15402000000000002           
         H43       1.0000    0.32640   0.48810   0.29980   Biso      1.000     H          0.16766   
         H44       1.0000    0.42600   0.40480   0.30310   Biso      1.000     H          0.160931  
         H45       1.0000    0.99240   0.43640   0.74820   Biso      1.000     H          0.148921  
         H46       1.0000    0.30380   0.36560   0.31810   Biso      1.000     H          0.17264000000000002           
         H47       1.0000    0.79380   0.34410   0.40850   Biso      1.000     H          0.5097550000000001  
         H48       1.0000    0.23910   0.89620   0.68950   Biso      1.000     H          0.425854  
         O1        1.0000    0.55960   0.21570   0.33530   Biso      1.000     O          -0.690665           
         O2        1.0000    0.41270   0.10200   0.31190   Biso      1.000     O          -0.654239           
         O3        1.0000    0.28760   0.09950   0.67670   Biso      1.000     O          -0.24092199999999997          
         O4        1.0000    0.38140   0.95310   0.82820   Biso      1.000     O          -0.715643           
         O5        1.0000    0.39010   0.07800   0.95530   Biso      1.000     O          -0.650454           
         O6        1.0000    0.67630   0.22700   0.72940   Biso      1.000     O          -0.21456599999999998          
         O7        1.0000    0.44040   0.71570   0.66470   Biso      1.000     O          -0.690665           
         O8        1.0000    0.19870   0.00410   0.20230   Biso      1.000     O          -0.614056           
         O9        1.0000    0.20070   0.97790   0.02860   Biso      1.000     O          -0.683197           
         O10       1.0000    0.79970   0.92860   0.86660   Biso      1.000     O          -0.219417           
         O11       1.0000    0.74290   0.71740   0.87860   Biso      1.000     O          -0.579782           
         O12       1.0000    0.56190   0.75500   0.87200   Biso      1.000     O          -0.765867           
         O13       1.0000    0.80190   0.89710   0.25530   Biso      1.000     O          -0.234727           
         O14       1.0000    0.74670   0.11150   0.23160   Biso      1.000     O          -0.641529           
         O15       1.0000    0.59250   0.37320   0.85940   Biso      1.000     O          -0.674841           
         O16       1.0000    0.62360   0.26280   0.00120   Biso      1.000     O          -0.702755           
         O17       1.0000    0.57360   0.06930   0.15560   Biso      1.000     O          -0.744321           
         O18       1.0000    0.42640   0.56930   0.84440   Biso      1.000     O          -0.744321           
         O19       1.0000    0.58730   0.60200   0.68810   Biso      1.000     O          -0.654239           
         O20       1.0000    0.71240   0.59950   0.32330   Biso      1.000     O          -0.24092199999999997          
         O21       1.0000    0.61860   0.45310   0.17180   Biso      1.000     O          -0.715643           
         O22       1.0000    0.60990   0.57800   0.04470   Biso      1.000     O          -0.650453           
         O23       1.0000    0.32370   0.72700   0.27060   Biso      1.000     O          -0.21456599999999998          
         O24       1.0000    0.37640   0.76280   0.99880   Biso      1.000     O          -0.702755           
         O25       1.0000    0.24690   0.83940   0.65340   Biso      1.000     O          -0.9015110000000001           
         O26       1.0000    0.40750   0.87320   0.14060   Biso      1.000     O          -0.674841           
         O27       1.0000    0.79930   0.47790   0.97140   Biso      1.000     O          -0.683197           
         O28       1.0000    0.20030   0.42860   0.13340   Biso      1.000     O          -0.21941599999999997          
         O29       1.0000    0.25710   0.21740   0.12140   Biso      1.000     O          -0.579782           
         O30       1.0000    0.43810   0.25500   0.12800   Biso      1.000     O          -0.765867           
         O31       1.0000    0.19810   0.39710   0.74470   Biso      1.000     O          -0.234727           
         O32       1.0000    0.25330   0.61150   0.76840   Biso      1.000     O          -0.641529           
         O33       1.0000    0.80130   0.50410   0.79770   Biso      1.000     O          -0.614056           
         O34       1.0000    0.75310   0.33940   0.34660   Biso      1.000     O          -0.9015110000000001           
         Tb1       1.0000    0.36193   0.77053   0.81499   Biso      1.000     Tb          2.1473    
         Tb2       1.0000    0.62814   0.55439   0.86800   Biso      1.000     Tb          2.073077  
         Tb3       1.0000    0.37186   0.05439   0.13200   Biso      1.000     Tb          2.073077  
         Tb4       1.0000    0.63807   0.27053   0.18501   Biso      1.000     Tb          2.1473 