
##########################################################################
#               Crystallographic Information Format file
#               Produced by PyCifRW module
#
#  This is a CIF file.  CIF has been adopted by the International
#  Union of Crystallography as the standard for data archiving and
#  transmission.
#
#  For information on this file format, follow the CIF links at
#  http://www.iucr.org
##########################################################################

data_image0

_cell_length_a                          11.855
_cell_length_b                          12.414
_cell_length_c                          12.473
_cell_angle_alpha                       90
_cell_angle_beta                        99.01
_cell_angle_gamma                       90
_symmetry_space_group_name_H-M          'P 1'
_symmetry_int_tables_number             1
loop_
  _symmetry_equiv_pos_as_xyz
         'x, y, z' 
loop_
  _atom_site_label
  _atom_site_occupancy
  _atom_site_fract_x
  _atom_site_fract_y
  _atom_site_fract_z
  _atom_site_thermal_displace_type
  _atom_site_B_iso_or_equiv
  _atom_site_type_symbol
  _atom_site_charge
         C1        1.0000    0.48510   0.33950   0.48800   Biso      1.000     C          0.015437000000000001          
         C2        1.0000    0.31250   0.07290   0.75030   Biso      1.000     C          0.097822  
         C3        1.0000    0.14870   0.51920   0.10850   Biso      1.000     C          0.5859979999999999  
         C4        1.0000    0.68750   0.57290   0.24970   Biso      1.000     C          0.097822  
         C5        1.0000    0.85130   0.01920   0.89150   Biso      1.000     C          0.5859979999999999  
         C6        1.0000    0.51800   0.83370   0.29040   Biso      1.000     C          -0.388347           
         C7        1.0000    0.66120   0.58150   0.36480   Biso      1.000     C          -0.499259           
         C8        1.0000    0.03110   0.06520   0.81950   Biso      1.000     C          -0.270723           
         C9        1.0000    0.14750   0.08780   0.83650   Biso      1.000     C          0.30647800000000003           
         C10       1.0000    0.68030   0.60010   0.83620   Biso      1.000     C          0.096376  
         C11       1.0000    0.66090   0.71560   0.86480   Biso      1.000     C          0.6055520000000001  
         C12       1.0000    0.65080   0.58720   0.71380   Biso      1.000     C          -0.499288           
         C13       1.0000    0.20850   0.09120   0.94180   Biso      1.000     C          -0.389158           
         C14       1.0000    0.96890   0.56520   0.18050   Biso      1.000     C          -0.270723           
         C15       1.0000    0.15280   0.07200   0.02900   Biso      1.000     C          0.312148  
         C16       1.0000    0.97710   0.04540   0.90850   Biso      1.000     C          0.034017  
         C17       1.0000    0.18030   0.79860   0.11520   Biso      1.000     C          -0.502757           
         C18       1.0000    0.36830   0.71240   0.09210   Biso      1.000     C          0.675904  
         C19       1.0000    0.30840   0.79470   0.15560   Biso      1.000     C          0.087711  
         C20       1.0000    0.84550   0.89430   0.20570   Biso      1.000     C          -0.498586           
         C21       1.0000    0.64380   0.95790   0.14120   Biso      1.000     C          0.6676300000000001  
         C22       1.0000    0.72140   0.88160   0.21690   Biso      1.000     C          0.081317  
         C23       1.0000    0.51120   0.84160   0.63100   Biso      1.000     C          0.665212  
         C24       1.0000    0.41890   0.80270   0.44130   Biso      1.000     C          -0.27972199999999997          
         C25       1.0000    0.42030   0.80290   0.33080   Biso      1.000     C          0.308514  
         C26       1.0000    0.51490   0.83950   0.51200   Biso      1.000     C          0.015437000000000001          
         C27       1.0000    0.61080   0.87540   0.47250   Biso      1.000     C          -0.269387           
         C28       1.0000    0.03730   0.04800   0.01320   Biso      1.000     C          -0.271941           
         C29       1.0000    0.85250   0.58780   0.16350   Biso      1.000     C          0.30647800000000003           
         C30       1.0000    0.67250   0.45720   0.21020   Biso      1.000     C          0.61457   
         C31       1.0000    0.79150   0.59120   0.05820   Biso      1.000     C          -0.389158           
         C32       1.0000    0.38920   0.37540   0.52750   Biso      1.000     C          -0.269387           
         C33       1.0000    0.38810   0.36990   0.63920   Biso      1.000     C          0.30099000000000004           
         C34       1.0000    0.48200   0.33370   0.70960   Biso      1.000     C          -0.388345           
         C35       1.0000    0.57970   0.30290   0.66920   Biso      1.000     C          0.30851100000000004           
         C36       1.0000    0.58110   0.30270   0.55870   Biso      1.000     C          -0.279719           
         C37       1.0000    0.48880   0.34160   0.36900   Biso      1.000     C          0.665211  
         C38       1.0000    0.27860   0.38160   0.78310   Biso      1.000     C          0.081317  
         C39       1.0000    0.34920   0.08720   0.28620   Biso      1.000     C          -0.499288           
         C40       1.0000    0.35620   0.45790   0.85880   Biso      1.000     C          0.6676300000000001  
         C41       1.0000    0.15450   0.39430   0.79430   Biso      1.000     C          -0.498586           
         C42       1.0000    0.33910   0.21560   0.13520   Biso      1.000     C          0.6055520000000001  
         C43       1.0000    0.31970   0.10010   0.16380   Biso      1.000     C          0.096376  
         C44       1.0000    0.61190   0.86990   0.36080   Biso      1.000     C          0.300992  
         C45       1.0000    0.84720   0.57200   0.97100   Biso      1.000     C          0.312148  
         C46       1.0000    0.63170   0.21240   0.90790   Biso      1.000     C          0.675904  
         C47       1.0000    0.81970   0.29860   0.88480   Biso      1.000     C          -0.502757           
         C48       1.0000    0.32750   0.95720   0.78980   Biso      1.000     C          0.61457   
         C49       1.0000    0.96270   0.54800   0.98680   Biso      1.000     C          -0.271941           
         C50       1.0000    0.02290   0.54540   0.09150   Biso      1.000     C          0.034017  
         C51       1.0000    0.33880   0.08150   0.63520   Biso      1.000     C          -0.499259           
         C52       1.0000    0.69160   0.29470   0.84440   Biso      1.000     C          0.087711  
         H1        1.0000    0.28630   0.10620   0.95300   Biso      1.000     H          0.144402  
         H2        1.0000    0.42660   0.10980   0.30960   Biso      1.000     H          0.16130899999999998           
         H3        1.0000    0.52020   0.83010   0.21620   Biso      1.000     H          0.139153  
         H4        1.0000    0.35490   0.77830   0.46860   Biso      1.000     H          0.147957  
         H5        1.0000    0.29860   0.13080   0.32100   Biso      1.000     H          0.174921  
         H6        1.0000    0.69830   0.80720   0.19870   Biso      1.000     H          0.076451  
         H7        1.0000    0.34100   0.01300   0.30530   Biso      1.000     H          0.165183  
         H8        1.0000    0.86900   0.96720   0.22250   Biso      1.000     H          0.147291  
         H9        1.0000    0.85550   0.87780   0.13260   Biso      1.000     H          0.183951  
         H10       1.0000    0.31950   0.15230   0.60740   Biso      1.000     H          0.17011400000000002           
         H11       1.0000    0.34050   0.86610   0.14570   Biso      1.000     H          0.069522  
         H12       1.0000    0.29480   0.02900   0.59010   Biso      1.000     H          0.167942  
         H13       1.0000    0.99010   0.06340   0.74950   Biso      1.000     H          0.147573  
         H14       1.0000    0.14560   0.85110   0.15620   Biso      1.000     H          0.172048  
         H15       1.0000    0.36330   0.12050   0.79860   Biso      1.000     H          0.073535  
         H16       1.0000    0.16710   0.81790   0.03980   Biso      1.000     H          0.164889  
         H17       1.0000    0.00040   0.03390   0.07220   Biso      1.000     H          0.137472  
         H18       1.0000    0.41870   0.06860   0.63540   Biso      1.000     H          0.169822  
         H19       1.0000    0.36770   0.05250   0.12740   Biso      1.000     H          0.0728    
         H20       1.0000    0.89090   0.84610   0.25490   Biso      1.000     H          0.175465  
         H21       1.0000    0.14760   0.72910   0.12430   Biso      1.000     H          0.162043  
         H22       1.0000    0.80460   0.16370   0.41190   Biso      1.000     H          0.509757  
         H23       1.0000    0.22850   0.61150   0.68640   Biso      1.000     H          0.42481899999999995           
         H24       1.0000    0.63230   0.55250   0.87260   Biso      1.000     H          0.0728    
         H25       1.0000    0.58130   0.56860   0.36460   Biso      1.000     H          0.169822  
         H26       1.0000    0.70520   0.52900   0.40990   Biso      1.000     H          0.167942  
         H27       1.0000    0.68050   0.65230   0.39260   Biso      1.000     H          0.17011400000000002           
         H28       1.0000    0.63670   0.62050   0.20140   Biso      1.000     H          0.073535  
         H29       1.0000    0.67310   0.90250   0.51920   Biso      1.000     H          0.15532100000000001           
         H30       1.0000    0.71370   0.60620   0.04700   Biso      1.000     H          0.144403  
         H31       1.0000    0.99960   0.53390   0.92780   Biso      1.000     H          0.137472  
         H32       1.0000    0.83290   0.31790   0.96020   Biso      1.000     H          0.164889  
         H33       1.0000    0.85240   0.22910   0.87570   Biso      1.000     H          0.162043  
         H34       1.0000    0.85440   0.35110   0.84380   Biso      1.000     H          0.172049  
         H35       1.0000    0.65950   0.36610   0.85430   Biso      1.000     H          0.069522  
         H36       1.0000    0.14450   0.37780   0.86740   Biso      1.000     H          0.183951  
         H37       1.0000    0.13100   0.46720   0.77750   Biso      1.000     H          0.14729   
         H38       1.0000    0.10910   0.34610   0.74510   Biso      1.000     H          0.175465  
         H39       1.0000    0.30170   0.30720   0.80130   Biso      1.000     H          0.076451  
         H40       1.0000    0.64510   0.27830   0.53140   Biso      1.000     H          0.147956  
         H41       1.0000    0.47980   0.33010   0.78380   Biso      1.000     H          0.139154  
         H42       1.0000    0.32690   0.40250   0.48080   Biso      1.000     H          0.15532100000000001           
         H43       1.0000    0.65900   0.51300   0.69470   Biso      1.000     H          0.165183  
         H44       1.0000    0.70140   0.63080   0.67900   Biso      1.000     H          0.174922  
         H45       1.0000    0.00990   0.56340   0.25050   Biso      1.000     H          0.147574  
         H46       1.0000    0.57340   0.60980   0.69040   Biso      1.000     H          0.16130899999999998           
         H47       1.0000    0.19540   0.66370   0.58810   Biso      1.000     H          0.509756  
         H48       1.0000    0.77150   0.11150   0.31360   Biso      1.000     H          0.42481899999999995           
         O1        1.0000    0.43540   0.78460   0.66370   Biso      1.000     O          -0.695978           
         O2        1.0000    0.58270   0.89870   0.68930   Biso      1.000     O          -0.6470819999999999           
         O3        1.0000    0.71220   0.90020   0.32710   Biso      1.000     O          -0.242117           
         O4        1.0000    0.62020   0.04710   0.17340   Biso      1.000     O          -0.7036979999999999           
         O5        1.0000    0.61020   0.92120   0.04610   Biso      1.000     O          -0.664404           
         O6        1.0000    0.32110   0.77280   0.26730   Biso      1.000     O          -0.209083           
         O7        1.0000    0.56460   0.28460   0.33630   Biso      1.000     O          -0.695978           
         O8        1.0000    0.79970   0.99630   0.79940   Biso      1.000     O          -0.6185   
         O9        1.0000    0.79990   0.02090   0.97350   Biso      1.000     O          -0.679451           
         O10       1.0000    0.20330   0.07040   0.13610   Biso      1.000     O          -0.22405500000000003          
         O11       1.0000    0.25850   0.28270   0.12290   Biso      1.000     O          -0.588536           
         O12       1.0000    0.44060   0.24580   0.12820   Biso      1.000     O          -0.761007           
         O13       1.0000    0.19620   0.10570   0.74700   Biso      1.000     O          -0.23175900000000002          
         O14       1.0000    0.24990   0.89000   0.76700   Biso      1.000     O          -0.6308729999999999           
         O15       1.0000    0.40820   0.62710   0.13900   Biso      1.000     O          -0.679715           
         O16       1.0000    0.37360   0.73760   0.99660   Biso      1.000     O          -0.699343           
         O17       1.0000    0.42360   0.93130   0.84490   Biso      1.000     O          -0.749368           
         O18       1.0000    0.57640   0.43130   0.15510   Biso      1.000     O          -0.749368           
         O19       1.0000    0.41730   0.39870   0.31070   Biso      1.000     O          -0.6470819999999999           
         O20       1.0000    0.28780   0.40020   0.67290   Biso      1.000     O          -0.242116           
         O21       1.0000    0.37980   0.54710   0.82660   Biso      1.000     O          -0.7036979999999999           
         O22       1.0000    0.38980   0.42120   0.95390   Biso      1.000     O          -0.664404           
         O23       1.0000    0.67890   0.27280   0.73270   Biso      1.000     O          -0.20908200000000002          
         O24       1.0000    0.62640   0.23760   0.00340   Biso      1.000     O          -0.699343           
         O25       1.0000    0.76360   0.16840   0.34970   Biso      1.000     O          -0.8951969999999999           
         O26       1.0000    0.59180   0.12710   0.86100   Biso      1.000     O          -0.679715           
         O27       1.0000    0.20010   0.52090   0.02650   Biso      1.000     O          -0.679451           
         O28       1.0000    0.79670   0.57040   0.86390   Biso      1.000     O          -0.22405500000000003          
         O29       1.0000    0.74150   0.78270   0.87710   Biso      1.000     O          -0.588537           
         O30       1.0000    0.55940   0.74580   0.87180   Biso      1.000     O          -0.7610060000000001           
         O31       1.0000    0.80380   0.60570   0.25300   Biso      1.000     O          -0.23175900000000002          
         O32       1.0000    0.75010   0.39000   0.23300   Biso      1.000     O          -0.6308729999999999           
         O33       1.0000    0.20030   0.49630   0.20060   Biso      1.000     O          -0.6185   
         O34       1.0000    0.23640   0.66840   0.65030   Biso      1.000     O          -0.8951969999999999           
         Tb1       1.0000    0.64169   0.22965   0.18693   Biso      1.000     Tb          2.1423509999999997  
         Tb2       1.0000    0.37362   0.44540   0.13027   Biso      1.000     Tb          2.077568  
         Tb3       1.0000    0.62638   0.94540   0.86973   Biso      1.000     Tb          2.077568  
         Tb4       1.0000    0.35831   0.72965   0.81307   Biso      1.000     Tb          2.1423509999999997 