
##########################################################################
#               Crystallographic Information Format file
#               Produced by PyCifRW module
#
#  This is a CIF file.  CIF has been adopted by the International
#  Union of Crystallography as the standard for data archiving and
#  transmission.
#
#  For information on this file format, follow the CIF links at
#  http://www.iucr.org
##########################################################################

data_image0

_cell_length_a                          14.6464
_cell_length_b                          14.6464
_cell_length_c                          14.6464
_cell_angle_alpha                       109.471
_cell_angle_beta                        109.471
_cell_angle_gamma                       109.471
_symmetry_space_group_name_H-M          'P 1'
_symmetry_int_tables_number             1
loop_
  _symmetry_equiv_pos_as_xyz
         'x, y, z' 
loop_
  _atom_site_label
  _atom_site_occupancy
  _atom_site_fract_x
  _atom_site_fract_y
  _atom_site_fract_z
  _atom_site_thermal_displace_type
  _atom_site_B_iso_or_equiv
  _atom_site_type_symbol
  _atom_site_charge
         C1        1.0000    0.24700   0.63060   0.63060   Biso      1.000     C          0.3725    
         C2        1.0000    0.36940   0.61640   0.00000   Biso      1.000     C          0.375382  
         C3        1.0000    0.20990   0.26570   0.68520   Biso      1.000     C          -0.083915           
         C4        1.0000    0.31610   0.51030   0.00000   Biso      1.000     C          -0.445337           
         C5        1.0000    0.73430   0.41950   0.94420   Biso      1.000     C          -0.083245           
         C6        1.0000    0.58050   0.52470   0.31480   Biso      1.000     C          -0.08342100000000001          
         C7        1.0000    0.38360   0.38360   0.75300   Biso      1.000     C          0.381421  
         C8        1.0000    0.48970   0.48970   0.80580   Biso      1.000     C          -0.44680699999999995          
         C9        1.0000    0.79010   0.47530   0.05580   Biso      1.000     C          -0.078537           
         C10       1.0000    0.05580   0.47530   0.79010   Biso      1.000     C          -0.078557           
         C11       1.0000    0.26570   0.20990   0.68520   Biso      1.000     C          -0.082997           
         C12       1.0000    0.63060   0.63060   0.24700   Biso      1.000     C          0.373141  
         C13       1.0000    0.68390   0.68390   0.19420   Biso      1.000     C          -0.445878           
         C14       1.0000    0.31480   0.52470   0.58050   Biso      1.000     C          -0.080184           
         C15       1.0000    0.20990   0.68520   0.26570   Biso      1.000     C          -0.08373799999999999          
         C16       1.0000    0.80580   0.48970   0.48970   Biso      1.000     C          -0.444125           
         C17       1.0000    0.61640   0.36940   0.00000   Biso      1.000     C          0.37850500000000004           
         C18       1.0000    0.58050   0.31480   0.52470   Biso      1.000     C          -0.082104           
         C19       1.0000    0.51030   0.31610   0.00000   Biso      1.000     C          -0.44509499999999996          
         C20       1.0000    0.68520   0.26570   0.20990   Biso      1.000     C          -0.082933           
         C21       1.0000    0.79010   0.05580   0.47530   Biso      1.000     C          -0.078802           
         C22       1.0000    0.41950   0.94420   0.73430   Biso      1.000     C          -0.083427           
         C23       1.0000    0.41950   0.73430   0.94420   Biso      1.000     C          -0.082086           
         C24       1.0000    0.31610   0.00000   0.51030   Biso      1.000     C          -0.44586099999999995          
         C25       1.0000    0.61640   0.00000   0.36940   Biso      1.000     C          0.380678  
         C26       1.0000    0.94420   0.41950   0.73430   Biso      1.000     C          -0.082563           
         C27       1.0000    0.75300   0.38360   0.38360   Biso      1.000     C          0.382333  
         C28       1.0000    0.00000   0.31610   0.51030   Biso      1.000     C          -0.445297           
         C29       1.0000    0.68520   0.20990   0.26570   Biso      1.000     C          -0.080276           
         C30       1.0000    0.00000   0.36940   0.61640   Biso      1.000     C          0.376661  
         C31       1.0000    0.19420   0.68390   0.68390   Biso      1.000     C          -0.44576099999999996          
         C32       1.0000    0.31480   0.58050   0.52470   Biso      1.000     C          -0.08271  
         C33       1.0000    0.00000   0.61640   0.36940   Biso      1.000     C          0.375254  
         C34       1.0000    0.00000   0.51030   0.31610   Biso      1.000     C          -0.44538199999999994          
         C35       1.0000    0.05580   0.79010   0.47530   Biso      1.000     C          -0.078182           
         C36       1.0000    0.36940   0.00000   0.61640   Biso      1.000     C          0.372827  
         C37       1.0000    0.94420   0.73430   0.41950   Biso      1.000     C          -0.082208           
         C38       1.0000    0.73430   0.94420   0.41950   Biso      1.000     C          -0.084864           
         C39       1.0000    0.38360   0.75300   0.38360   Biso      1.000     C          0.37932   
         C40       1.0000    0.48970   0.80580   0.48970   Biso      1.000     C          -0.445479           
         C41       1.0000    0.26570   0.68520   0.20990   Biso      1.000     C          -0.081299           
         C42       1.0000    0.47530   0.79010   0.05580   Biso      1.000     C          -0.080308           
         C43       1.0000    0.63060   0.24700   0.63060   Biso      1.000     C          0.375687  
         C44       1.0000    0.52470   0.31480   0.58050   Biso      1.000     C          -0.080371           
         C45       1.0000    0.68390   0.19420   0.68390   Biso      1.000     C          -0.445352           
         C46       1.0000    0.52470   0.58050   0.31480   Biso      1.000     C          -0.077966           
         C47       1.0000    0.47530   0.05580   0.79010   Biso      1.000     C          -0.077903           
         C48       1.0000    0.51030   0.00000   0.31610   Biso      1.000     C          -0.446779           
         H1        1.0000    0.04494   0.26637   0.51758   Biso      1.000     H          0.128226  
         H2        1.0000    0.04494   0.38355   0.49379   Biso      1.000     H          0.140602  
         H3        1.0000    0.89890   0.42560   0.76510   Biso      1.000     H          0.110358  
         H4        1.0000    0.85475   0.48233   0.56322   Biso      1.000     H          0.136473  
         H5        1.0000    0.25211   0.91043   0.43957   Biso      1.000     H          0.131735  
         H6        1.0000    0.49193   0.99014   0.23032   Biso      1.000     H          0.125611  
         H7        1.0000    0.43886   0.92757   0.30633   Biso      1.000     H          0.139267  
         H8        1.0000    0.91012   0.43828   0.25755   Biso      1.000     H          0.133405  
         H9        1.0000    0.91012   0.25756   0.43828   Biso      1.000     H          0.133     
         H10       1.0000    0.50598   0.38182   0.06463   Biso      1.000     H          0.14080499999999999           
         H11       1.0000    0.50743   0.24774   0.02178   Biso      1.000     H          0.125433  
         H12       1.0000    0.72748   0.77871   0.24759   Biso      1.000     H          0.129065  
         H13       1.0000    0.74789   0.65832   0.18746   Biso      1.000     H          0.13185999999999998           
         H14       1.0000    0.61715   0.65549   0.10711   Biso      1.000     H          0.144569  
         H15       1.0000    0.48116   0.56346   0.85200   Biso      1.000     H          0.13467300000000001           
         H16       1.0000    0.56114   0.48870   0.86746   Biso      1.000     H          0.139427  
         H17       1.0000    0.50807   0.49820   0.73838   Biso      1.000     H          0.125942  
         H18       1.0000    0.23810   0.50001   0.00620   Biso      1.000     H          0.12452   
         H19       1.0000    0.37755   0.51282   0.07455   Biso      1.000     H          0.136685  
         H20       1.0000    0.27252   0.05123   0.52011   Biso      1.000     H          0.12885   
         H21       1.0000    0.38285   0.03834   0.48996   Biso      1.000     H          0.144625  
         H22       1.0000    0.76190   0.26191   0.76810   Biso      1.000     H          0.124715  
         H23       1.0000    0.62244   0.13526   0.69699   Biso      1.000     H          0.136653  
         H24       1.0000    0.70818   0.14499   0.62743   Biso      1.000     H          0.137026  
         H25       1.0000    0.49402   0.87584   0.55864   Biso      1.000     H          0.140902  
         H26       1.0000    0.49257   0.74032   0.51435   Biso      1.000     H          0.125892  
         H27       1.0000    0.56377   0.84168   0.47737   Biso      1.000     H          0.134457  
         H28       1.0000    0.51884   0.08229   0.37083   Biso      1.000     H          0.134729  
         H29       1.0000    0.04494   0.51758   0.26637   Biso      1.000     H          0.128894  
         H30       1.0000    0.04494   0.49379   0.38355   Biso      1.000     H          0.140402  
         H31       1.0000    0.13502   0.69670   0.62233   Biso      1.000     H          0.13736500000000001           
         H32       1.0000    0.14525   0.62758   0.70847   Biso      1.000     H          0.136304  
         H33       1.0000    0.73811   0.50635   0.49983   Biso      1.000     H          0.123938  
         H34       1.0000    0.86498   0.56168   0.48732   Biso      1.000     H          0.13786600000000002           
         H35       1.0000    0.26189   0.76824   0.76172   Biso      1.000     H          0.12503599999999998           
         H36       1.0000    0.43623   0.27791   0.91360   Biso      1.000     H          0.134246  
         H37       1.0000    0.13380   0.66050   0.23490   Biso      1.000     H          0.10908399999999999           
         H38       1.0000    0.86620   0.52670   0.10110   Biso      1.000     H          0.111046  
         H39       1.0000    0.42560   0.89890   0.76510   Biso      1.000     H          0.11005799999999999           
         H40       1.0000    0.42560   0.76510   0.89890   Biso      1.000     H          0.110035  
         H41       1.0000    0.52670   0.10110   0.86620   Biso      1.000     H          0.11085   
         H42       1.0000    0.57440   0.33950   0.47330   Biso      1.000     H          0.10987000000000001           
         H43       1.0000    0.86620   0.10110   0.52670   Biso      1.000     H          0.11212899999999999           
         H44       1.0000    0.47330   0.33950   0.57440   Biso      1.000     H          0.10909100000000001           
         H45       1.0000    0.89890   0.76510   0.42560   Biso      1.000     H          0.11257   
         H46       1.0000    0.66050   0.23490   0.13380   Biso      1.000     H          0.10836400000000002           
         H47       1.0000    0.23490   0.66050   0.13380   Biso      1.000     H          0.10971199999999999           
         H48       1.0000    0.13380   0.23490   0.66050   Biso      1.000     H          0.11018599999999999           
         H49       1.0000    0.10110   0.52670   0.86620   Biso      1.000     H          0.11009400000000001           
         H50       1.0000    0.33950   0.47330   0.57440   Biso      1.000     H          0.1098    
         H51       1.0000    0.76510   0.42560   0.89890   Biso      1.000     H          0.10949600000000001           
         H52       1.0000    0.66050   0.13380   0.23490   Biso      1.000     H          0.10918900000000001           
         H53       1.0000    0.33950   0.57440   0.47330   Biso      1.000     H          0.10896900000000001           
         H54       1.0000    0.76510   0.89890   0.42560   Biso      1.000     H          0.11015699999999999           
         H55       1.0000    0.52670   0.86620   0.10110   Biso      1.000     H          0.10906500000000001           
         H56       1.0000    0.29182   0.43681   0.91925   Biso      1.000     H          0.136957  
         H57       1.0000    0.57440   0.47330   0.33950   Biso      1.000     H          0.109903  
         H58       1.0000    0.10110   0.86620   0.52670   Biso      1.000     H          0.11230699999999999           
         H59       1.0000    0.23490   0.13380   0.66050   Biso      1.000     H          0.110375  
         H60       1.0000    0.47330   0.57440   0.33950   Biso      1.000     H          0.110882  
         N1        1.0000    0.37740   0.72840   0.28460   Biso      1.000     N          -0.35043  
         N2        1.0000    0.27160   0.64900   0.55620   Biso      1.000     N          -0.351192           
         N3        1.0000    0.09280   0.71540   0.44380   Biso      1.000     N          -0.355585           
         N4        1.0000    0.44380   0.09280   0.71540   Biso      1.000     N          -0.354168           
         N5        1.0000    0.72840   0.28460   0.37740   Biso      1.000     N          -0.349941           
         N6        1.0000    0.62260   0.90720   0.35100   Biso      1.000     N          -0.352539           
         N7        1.0000    0.35100   0.62260   0.90720   Biso      1.000     N          -0.352436           
         N8        1.0000    0.90720   0.35100   0.62260   Biso      1.000     N          -0.349412           
         N9        1.0000    0.55620   0.27160   0.64900   Biso      1.000     N          -0.349844           
         N10       1.0000    0.55620   0.64900   0.27160   Biso      1.000     N          -0.354184           
         N11       1.0000    0.64900   0.55620   0.27160   Biso      1.000     N          -0.349079           
         N12       1.0000    0.44380   0.71540   0.09280   Biso      1.000     N          -0.349827           
         N13       1.0000    0.37740   0.28460   0.72840   Biso      1.000     N          -0.352116           
         N14       1.0000    0.62260   0.35100   0.90720   Biso      1.000     N          -0.35082800000000003          
         N15       1.0000    0.09280   0.44380   0.71540   Biso      1.000     N          -0.352186           
         N16       1.0000    0.28460   0.37740   0.72840   Biso      1.000     N          -0.350856           
         N17       1.0000    0.72840   0.37740   0.28460   Biso      1.000     N          -0.34978400000000004          
         N18       1.0000    0.27160   0.55620   0.64900   Biso      1.000     N          -0.351353           
         N19       1.0000    0.71540   0.09280   0.44380   Biso      1.000     N          -0.352545           
         N20       1.0000    0.64900   0.27160   0.55620   Biso      1.000     N          -0.351713           
         N21       1.0000    0.28460   0.72840   0.37740   Biso      1.000     N          -0.351679           
         N22       1.0000    0.35100   0.90720   0.62260   Biso      1.000     N          -0.34982199999999997          
         N23       1.0000    0.71540   0.44380   0.09280   Biso      1.000     N          -0.353346           
         N24       1.0000    0.90720   0.62260   0.35100   Biso      1.000     N          -0.35284699999999997          
         Zn1       1.0000    0.75000   0.50000   0.25000   Biso      1.000     Zn          0.622888  
         Zn2       1.0000    0.75000   0.25000   0.50000   Biso      1.000     Zn          0.621476  
         Zn3       1.0000    0.25000   0.75000   0.50000   Biso      1.000     Zn          0.629471  
         Zn4       1.0000    0.50000   0.75000   0.25000   Biso      1.000     Zn          0.629139  
         Zn5       1.0000    0.50000   0.25000   0.75000   Biso      1.000     Zn          0.629139  
         Zn6       1.0000    0.25000   0.50000   0.75000   Biso      1.000     Zn          0.627897 