
##########################################################################
#               Crystallographic Information Format file
#               Produced by PyCifRW module
#
#  This is a CIF file.  CIF has been adopted by the International
#  Union of Crystallography as the standard for data archiving and
#  transmission.
#
#  For information on this file format, follow the CIF links at
#  http://www.iucr.org
##########################################################################

data_image0

_cell_length_a                          11.552
_cell_length_b                          12.742
_cell_length_c                          14.589
_cell_angle_alpha                       94.22
_cell_angle_beta                        109.01
_cell_angle_gamma                       115.57
_symmetry_space_group_name_H-M          'P 1'
_symmetry_int_tables_number             1
loop_
  _symmetry_equiv_pos_as_xyz
         'x, y, z' 
loop_
  _atom_site_label
  _atom_site_occupancy
  _atom_site_fract_x
  _atom_site_fract_y
  _atom_site_fract_z
  _atom_site_thermal_displace_type
  _atom_site_B_iso_or_equiv
  _atom_site_type_symbol
  _atom_site_charge
         C1        1.0000    0.34380   0.81290   0.93120   Biso      1.000     C          -0.143403           
         C2        1.0000    0.89790   0.58510   0.28120   Biso      1.000     C          0.600013  
         C3        1.0000    0.46610   0.55160   0.27510   Biso      1.000     C          0.578711  
         C4        1.0000    0.76770   0.59120   0.22210   Biso      1.000     C          0.09765800000000001           
         C5        1.0000    0.74730   0.62170   0.13050   Biso      1.000     C          -0.077351           
         C6        1.0000    0.62970   0.63260   0.08450   Biso      1.000     C          -0.048045           
         C7        1.0000    0.53370   0.60810   0.12830   Biso      1.000     C          -0.10476400000000001          
         C8        1.0000    0.56120   0.57690   0.21870   Biso      1.000     C          0.082232  
         C9        1.0000    0.78120   0.34760   0.99110   Biso      1.000     C          0.554135  
         C10       1.0000    0.02610   0.37290   0.33130   Biso      1.000     C          0.5934560000000001  
         C11       1.0000    0.77280   0.29000   0.07580   Biso      1.000     C          0.14063299999999998           
         C12       1.0000    0.65620   0.18710   0.06880   Biso      1.000     C          -0.143404           
         C13       1.0000    0.65940   0.14040   0.15110   Biso      1.000     C          -0.044583           
         C14       1.0000    0.78060   0.19790   0.23800   Biso      1.000     C          -0.11443299999999999          
         C15       1.0000    0.89230   0.30130   0.23960   Biso      1.000     C          0.12351199999999998           
         C16       1.0000    0.10770   0.69870   0.76040   Biso      1.000     C          0.123511  
         C17       1.0000    0.21940   0.80210   0.76200   Biso      1.000     C          -0.11442999999999999          
         C18       1.0000    0.10210   0.41490   0.71880   Biso      1.000     C          0.600009  
         C19       1.0000    0.53390   0.44840   0.72490   Biso      1.000     C          0.5787100000000001  
         C20       1.0000    0.23230   0.40880   0.77790   Biso      1.000     C          0.097651  
         C21       1.0000    0.25270   0.37830   0.86950   Biso      1.000     C          -0.07735  
         C22       1.0000    0.37030   0.36740   0.91550   Biso      1.000     C          -0.048061           
         C23       1.0000    0.46630   0.39190   0.87170   Biso      1.000     C          -0.10476500000000001          
         C24       1.0000    0.43880   0.42310   0.78130   Biso      1.000     C          0.082228  
         C25       1.0000    0.21880   0.65240   0.00890   Biso      1.000     C          0.554136  
         C26       1.0000    0.97390   0.62710   0.66870   Biso      1.000     C          0.5934590000000001  
         C27       1.0000    0.22720   0.71000   0.92420   Biso      1.000     C          0.14063399999999998           
         C28       1.0000    0.34060   0.85960   0.84890   Biso      1.000     C          -0.044582           
         H1        1.0000    0.58190   0.07170   0.14850   Biso      1.000     H          0.108678  
         H2        1.0000    0.38650   0.66010   0.44320   Biso      1.000     H          0.488066  
         H3        1.0000    0.41740   0.58820   0.47010   Biso      1.000     H          0.481241  
         H4        1.0000    0.78650   0.16730   0.29430   Biso      1.000     H          0.13651300000000002           
         H5        1.0000    0.09410   0.62380   0.46230   Biso      1.000     H          0.442021  
         H6        1.0000    0.38530   0.34400   0.97530   Biso      1.000     H          0.08684700000000001           
         H7        1.0000    0.54770   0.38730   0.90260   Biso      1.000     H          0.138466  
         H8        1.0000    0.42320   0.85000   0.99070   Biso      1.000     H          0.12091600000000001           
         H9        1.0000    0.41810   0.92830   0.85150   Biso      1.000     H          0.108678  
         H10       1.0000    0.21350   0.83270   0.70570   Biso      1.000     H          0.136512  
         H11       1.0000    0.87660   0.41520   0.43770   Biso      1.000     H          0.35951900000000003           
         H12       1.0000    0.90590   0.37620   0.53770   Biso      1.000     H          0.442021  
         H13       1.0000    0.12340   0.58480   0.56230   Biso      1.000     H          0.359521  
         H14       1.0000    0.61350   0.33990   0.55680   Biso      1.000     H          0.488063  
         H15       1.0000    0.81120   0.63430   0.10130   Biso      1.000     H          0.147044  
         H16       1.0000    0.61470   0.65600   0.02470   Biso      1.000     H          0.086852  
         H17       1.0000    0.45230   0.61270   0.09740   Biso      1.000     H          0.138469  
         H18       1.0000    0.57680   0.15000   0.00930   Biso      1.000     H          0.12091700000000001           
         H19       1.0000    0.18880   0.36570   0.89870   Biso      1.000     H          0.147043  
         H20       1.0000    0.58260   0.41180   0.52990   Biso      1.000     H          0.48123999999999995           
         La1       1.0000    0.11849   0.54830   0.16889   Biso      1.000     La          1.9220689999999998  
         La2       1.0000    0.26551   0.47562   0.55631   Biso      1.000     La          1.79063   
         La3       1.0000    0.88151   0.45170   0.83111   Biso      1.000     La          1.922062  
         La4       1.0000    0.73449   0.52438   0.44369   Biso      1.000     La          1.7906349999999998  
         Mo1       1.0000    0.87277   0.92697   0.72809   Biso      1.000     Mo          0.7673979999999999  
         Mo2       1.0000    0.14630   0.04356   0.96191   Biso      1.000     Mo          1.318798  
         Mo3       1.0000    0.15075   0.24070   0.11396   Biso      1.000     Mo          1.4153120000000001  
         Mo4       1.0000    0.12198   0.87432   0.11559   Biso      1.000     Mo          1.4041629999999998  
         Mo5       1.0000    0.12723   0.07303   0.27191   Biso      1.000     Mo          0.767408  
         Mo6       1.0000    0.84925   0.75930   0.88604   Biso      1.000     Mo          1.415326  
         Mo7       1.0000    0.85370   0.95644   0.03809   Biso      1.000     Mo          1.3187959999999999  
         Mo8       1.0000    0.87802   0.12568   0.88441   Biso      1.000     Mo          1.404167  
         N1        1.0000    0.88950   0.34670   0.16000   Biso      1.000     N          -0.316863           
         N2        1.0000    0.67780   0.56940   0.26500   Biso      1.000     N          -0.445058           
         N3        1.0000    0.11050   0.65330   0.84000   Biso      1.000     N          -0.31686  
         N4        1.0000    0.32220   0.43060   0.73500   Biso      1.000     N          -0.44508500000000006          
         O1        1.0000    0.01270   0.39430   0.75440   Biso      1.000     O          -0.591766           
         O2        1.0000    0.09130   0.43810   0.63480   Biso      1.000     O          -0.6556850000000001           
         O3        1.0000    0.57220   0.35440   0.50560   Biso      1.000     O          -0.936258           
         O4        1.0000    0.11630   0.54770   0.98793   Biso      1.000     O          -0.623776           
         O5        1.0000    0.49370   0.47640   0.64390   Biso      1.000     O          -0.6888920000000001           
         O6        1.0000    0.69180   0.29300   0.90410   Biso      1.000     O          -0.596696           
         O7        1.0000    0.64170   0.43990   0.76100   Biso      1.000     O          -0.613919           
         O8        1.0000    0.90760   0.11950   0.02553   Biso      1.000     O          -0.7723140000000001           
         O9        1.0000    0.89580   0.95270   0.90278   Biso      1.000     O          -0.9294879999999999           
         O10       1.0000    0.91530   0.08960   0.77243   Biso      1.000     O          -0.6984670000000001           
         O11       1.0000    0.88860   0.79310   0.77260   Biso      1.000     O          -0.716475           
         O12       1.0000    0.10550   0.01650   0.83360   Biso      1.000     O          -0.575523           
         O13       1.0000    0.92300   0.27400   0.89190   Biso      1.000     O          -0.663515           
         O14       1.0000    0.11430   0.18150   0.97349   Biso      1.000     O          -0.773096           
         O15       1.0000    0.96940   0.65510   0.58730   Biso      1.000     O          -0.6462289999999999           
         O16       1.0000    0.88140   0.63990   0.89700   Biso      1.000     O          -0.6784319999999999           
         O17       1.0000    0.87460   0.54160   0.67750   Biso      1.000     O          -0.65784  
         O18       1.0000    0.08470   0.91040   0.22757   Biso      1.000     O          -0.6984670000000001           
         O19       1.0000    0.42780   0.64560   0.49440   Biso      1.000     O          -0.9362459999999999           
         O20       1.0000    0.12540   0.45840   0.32250   Biso      1.000     O          -0.65784  
         O21       1.0000    0.03060   0.34490   0.41270   Biso      1.000     O          -0.646224           
         O22       1.0000    0.88370   0.45230   0.01207   Biso      1.000     O          -0.623779           
         O23       1.0000    0.30820   0.70700   0.09590   Biso      1.000     O          -0.596701           
         O24       1.0000    0.90870   0.56190   0.36520   Biso      1.000     O          -0.655682           
         O25       1.0000    0.98730   0.60570   0.24560   Biso      1.000     O          -0.591763           
         O26       1.0000    0.50630   0.52360   0.35610   Biso      1.000     O          -0.688898           
         O27       1.0000    0.35830   0.56010   0.23900   Biso      1.000     O          -0.613916           
         O28       1.0000    0.11860   0.36010   0.10300   Biso      1.000     O          -0.678434           
         O29       1.0000    0.10420   0.04730   0.09722   Biso      1.000     O          -0.9294969999999999           
         O30       1.0000    0.11140   0.20690   0.22740   Biso      1.000     O          -0.7164739999999999           
         O31       1.0000    0.89450   0.98350   0.16640   Biso      1.000     O          -0.575526           
         O32       1.0000    0.07700   0.72600   0.10810   Biso      1.000     O          -0.6635220000000001           
         O33       1.0000    0.88570   0.81850   0.02651   Biso      1.000     O          -0.773103           
         O34       1.0000    0.09240   0.88050   0.97447   Biso      1.000     O          -0.772313           
         O35       1.0000    0.16560   0.62030   0.51300   Biso      1.000     O          -0.785139           
         O36       1.0000    0.83440   0.37970   0.48700   Biso      1.000     O          -0.785146 