
##########################################################################
#               Crystallographic Information Format file
#               Produced by PyCifRW module
#
#  This is a CIF file.  CIF has been adopted by the International
#  Union of Crystallography as the standard for data archiving and
#  transmission.
#
#  For information on this file format, follow the CIF links at
#  http://www.iucr.org
##########################################################################

data_image0

_cell_length_a                          12.335
_cell_length_b                          12.335
_cell_length_c                          5.265
_cell_angle_alpha                       90
_cell_angle_beta                        90
_cell_angle_gamma                       90
_symmetry_space_group_name_H-M          'P 1'
_symmetry_int_tables_number             1
loop_
  _symmetry_equiv_pos_as_xyz
         'x, y, z' 
loop_
  _atom_site_label
  _atom_site_occupancy
  _atom_site_fract_x
  _atom_site_fract_y
  _atom_site_fract_z
  _atom_site_thermal_displace_type
  _atom_site_B_iso_or_equiv
  _atom_site_type_symbol
  _atom_site_charge
         C1        1.0000    0.29540   0.79430   0.71950   Biso      1.000     C          0.00782   
         C2        1.0000    0.50160   0.10480   0.64020   Biso      1.000     C          0.59348   
         C3        1.0000    0.70460   0.20570   0.21950   Biso      1.000     C          0.007814  
         C4        1.0000    0.79380   0.18660   0.41840   Biso      1.000     C          0.5835560000000001  
         C5        1.0000    0.20570   0.29540   0.96950   Biso      1.000     C          0.007833  
         C6        1.0000    0.31860   0.34480   0.98930   Biso      1.000     C          -0.244652           
         C7        1.0000    0.16940   0.47560   0.15080   Biso      1.000     C          -0.024456           
         C8        1.0000    0.10480   0.49840   0.39020   Biso      1.000     C          0.593493  
         C9        1.0000    0.18660   0.20620   0.16840   Biso      1.000     C          0.583525  
         C10       1.0000    0.65520   0.31860   0.23930   Biso      1.000     C          -0.24466300000000002          
         C11       1.0000    0.52440   0.16940   0.40080   Biso      1.000     C          -0.024459           
         C12       1.0000    0.20620   0.81340   0.91840   Biso      1.000     C          0.583561  
         C13       1.0000    0.49840   0.89520   0.14020   Biso      1.000     C          0.59349   
         C14       1.0000    0.68140   0.65520   0.48930   Biso      1.000     C          -0.244657           
         C15       1.0000    0.47560   0.83060   0.90080   Biso      1.000     C          -0.024459           
         C16       1.0000    0.83060   0.52440   0.65080   Biso      1.000     C          -0.024456           
         C17       1.0000    0.89520   0.50160   0.89020   Biso      1.000     C          0.593491  
         C18       1.0000    0.34480   0.68140   0.73930   Biso      1.000     C          -0.24465100000000004          
         C19       1.0000    0.81340   0.79380   0.66840   Biso      1.000     C          0.583565  
         C20       1.0000    0.79430   0.70460   0.46950   Biso      1.000     C          0.007815  
         Co1       1.0000    0.98454   0.32124   0.19137   Biso      1.000     Co          0.9332590000000001  
         Co2       1.0000    0.67876   0.98454   0.44137   Biso      1.000     Co          0.933443  
         Co3       1.0000    0.01546   0.67876   0.69137   Biso      1.000     Co          0.9334549999999999  
         Co4       1.0000    0.32124   0.01546   0.94137   Biso      1.000     Co          0.9331950000000001  
         H1        1.0000    0.89700   0.59800   0.36600   Biso      1.000     H          0.302057  
         H2        1.0000    0.26330   0.80320   0.54640   Biso      1.000     H          0.11511700000000001           
         H3        1.0000    0.38240   0.66140   0.58000   Biso      1.000     H          0.10723900000000001           
         H4        1.0000    0.82850   0.45770   0.54270   Biso      1.000     H          0.111546  
         H5        1.0000    0.28830   0.62650   0.77610   Biso      1.000     H          0.146957  
         H6        1.0000    0.62650   0.71170   0.52610   Biso      1.000     H          0.146991  
         H7        1.0000    0.66140   0.61760   0.33000   Biso      1.000     H          0.10726600000000001           
         H8        1.0000    0.54230   0.82850   0.79270   Biso      1.000     H          0.11151300000000001           
         H9        1.0000    0.80320   0.73670   0.29640   Biso      1.000     H          0.115149  
         H10       1.0000    0.40200   0.89700   0.61600   Biso      1.000     H          0.302031  
         H11       1.0000    0.71170   0.37350   0.27610   Biso      1.000     H          0.14694400000000002           
         H12       1.0000    0.17150   0.54230   0.04270   Biso      1.000     H          0.11152000000000001           
         H13       1.0000    0.37350   0.28830   0.02610   Biso      1.000     H          0.146966  
         H14       1.0000    0.61760   0.33860   0.08000   Biso      1.000     H          0.10723599999999998           
         H15       1.0000    0.10300   0.40200   0.86600   Biso      1.000     H          0.302032  
         H16       1.0000    0.19680   0.26330   0.79640   Biso      1.000     H          0.11510999999999999           
         H17       1.0000    0.45770   0.17150   0.29270   Biso      1.000     H          0.11153199999999999           
         H18       1.0000    0.73670   0.19680   0.04640   Biso      1.000     H          0.11511099999999999           
         H19       1.0000    0.59800   0.10300   0.11600   Biso      1.000     H          0.302035  
         H20       1.0000    0.33860   0.38240   0.83000   Biso      1.000     H          0.107234  
         N1        1.0000    0.12590   0.38370   0.00060   Biso      1.000     N          -0.45485699999999996          
         N2        1.0000    0.87410   0.61630   0.50060   Biso      1.000     N          -0.454872           
         N3        1.0000    0.61630   0.12590   0.25060   Biso      1.000     N          -0.454866           
         N4        1.0000    0.38370   0.87410   0.75060   Biso      1.000     N          -0.454863           
         O1        1.0000    0.74314   0.86772   0.69200   Biso      1.000     O          -0.557138           
         O2        1.0000    0.89911   0.79224   0.79650   Biso      1.000     O          -0.519462           
         O3        1.0000    0.96677   0.56852   0.96120   Biso      1.000     O          -0.527803           
         O4        1.0000    0.87131   0.41676   0.00700   Biso      1.000     O          -0.540283           
         O5        1.0000    0.41676   0.12869   0.75700   Biso      1.000     O          -0.540316           
         O6        1.0000    0.56852   0.03323   0.71120   Biso      1.000     O          -0.527834           
         O7        1.0000    0.13228   0.74314   0.94200   Biso      1.000     O          -0.557181           
         O8        1.0000    0.86772   0.25686   0.44200   Biso      1.000     O          -0.55714  
         O9        1.0000    0.25686   0.13228   0.19200   Biso      1.000     O          -0.557178           
         O10       1.0000    0.10089   0.20776   0.29650   Biso      1.000     O          -0.519517           
         O11       1.0000    0.03323   0.43148   0.46120   Biso      1.000     O          -0.527802           
         O12       1.0000    0.12869   0.58324   0.50700   Biso      1.000     O          -0.5403279999999999           
         O13       1.0000    0.58324   0.87131   0.25700   Biso      1.000     O          -0.540384           
         O14       1.0000    0.43148   0.96677   0.21120   Biso      1.000     O          -0.527791           
         O15       1.0000    0.20776   0.89911   0.04650   Biso      1.000     O          -0.51949  
         O16       1.0000    0.79224   0.10089   0.54650   Biso      1.000     O          -0.519523           
         S1        1.0000    0.69230   0.56030   0.74992   Biso      1.000     S          -0.032254000000000005         
         S2        1.0000    0.30770   0.43970   0.24992   Biso      1.000     S          -0.032341           
         S3        1.0000    0.43970   0.69230   0.99992   Biso      1.000     S          -0.032363           
         S4        1.0000    0.56030   0.30770   0.49992   Biso      1.000     S          -0.032345 