
##########################################################################
#               Crystallographic Information Format file
#               Produced by PyCifRW module
#
#  This is a CIF file.  CIF has been adopted by the International
#  Union of Crystallography as the standard for data archiving and
#  transmission.
#
#  For information on this file format, follow the CIF links at
#  http://www.iucr.org
##########################################################################

data_image0

_cell_length_a                          14.071
_cell_length_b                          15.265
_cell_length_c                          15.351
_cell_angle_alpha                       88.337
_cell_angle_beta                        85.779
_cell_angle_gamma                       85.205
_symmetry_space_group_name_H-M          'P 1'
_symmetry_int_tables_number             1
loop_
  _symmetry_equiv_pos_as_xyz
         'x, y, z' 
loop_
  _atom_site_label
  _atom_site_occupancy
  _atom_site_fract_x
  _atom_site_fract_y
  _atom_site_fract_z
  _atom_site_thermal_displace_type
  _atom_site_B_iso_or_equiv
  _atom_site_type_symbol
  _atom_site_charge
         C1        1.0000    0.51480   0.07780   0.41680   Biso      1.000     C          0.09826900000000001           
         C2        1.0000    0.21630   0.16750   0.22340   Biso      1.000     C          0.600448  
         C3        1.0000    0.19760   0.32680   0.39640   Biso      1.000     C          0.597665  
         C4        1.0000    0.27930   0.46350   0.35220   Biso      1.000     C          -0.10707  
         C5        1.0000    0.28240   0.55320   0.35020   Biso      1.000     C          -0.15528699999999998          
         C6        1.0000    0.76200   0.15540   0.38960   Biso      1.000     C          0.106179  
         C7        1.0000    0.82390   0.07900   0.39490   Biso      1.000     C          -0.164845           
         C8        1.0000    0.65780   0.15410   0.38870   Biso      1.000     C          0.111819  
         C9        1.0000    0.50170   0.22910   0.36290   Biso      1.000     C          0.09236699999999999           
         C10       1.0000    0.59630   0.22750   0.35710   Biso      1.000     C          -0.176965           
         C11       1.0000    0.90400   0.23400   0.38780   Biso      1.000     C          0.106648  
         C12       1.0000    0.72070   0.53650   0.64780   Biso      1.000     C          -0.10707  
         C13       1.0000    0.80240   0.67320   0.60360   Biso      1.000     C          0.597665  
         C14       1.0000    0.48520   0.92220   0.58320   Biso      1.000     C          0.09826900000000001           
         C15       1.0000    0.49830   0.77090   0.63710   Biso      1.000     C          0.09236699999999999           
         C16       1.0000    0.38950   0.91940   0.58120   Biso      1.000     C          -0.166871           
         C17       1.0000    0.40370   0.77250   0.64290   Biso      1.000     C          -0.176965           
         C18       1.0000    0.34220   0.84590   0.61130   Biso      1.000     C          0.111819  
         C19       1.0000    0.17610   0.92100   0.60510   Biso      1.000     C          -0.164845           
         C20       1.0000    0.23800   0.84460   0.61040   Biso      1.000     C          0.106179  
         C21       1.0000    0.19340   0.76510   0.61510   Biso      1.000     C          -0.182355           
         C22       1.0000    0.09600   0.76600   0.61220   Biso      1.000     C          0.106652  
         C23       1.0000    0.21750   0.17450   0.12670   Biso      1.000     C          -0.020723           
         C24       1.0000    0.08150   0.91630   0.60540   Biso      1.000     C          0.105929  
         C25       1.0000    0.13970   0.20940   0.08480   Biso      1.000     C          -0.103999           
         C26       1.0000    0.29150   0.14500   0.98320   Biso      1.000     C          -0.155284           
         C27       1.0000    0.91850   0.08370   0.39460   Biso      1.000     C          0.105929  
         C28       1.0000    0.19990   0.42460   0.39390   Biso      1.000     C          -0.020769           
         C29       1.0000    0.12620   0.47910   0.42910   Biso      1.000     C          -0.10116699999999999          
         C30       1.0000    0.13020   0.56790   0.42740   Biso      1.000     C          -0.150045           
         C31       1.0000    0.20600   0.60830   0.38770   Biso      1.000     C          0.076782  
         C32       1.0000    0.20980   0.70450   0.38540   Biso      1.000     C          0.06928200000000001           
         C33       1.0000    0.12760   0.76180   0.38550   Biso      1.000     C          -0.148274           
         C34       1.0000    0.29780   0.74450   0.38460   Biso      1.000     C          -0.158958           
         C35       1.0000    0.30170   0.83420   0.38420   Biso      1.000     C          -0.113449           
         C36       1.0000    0.13010   0.85160   0.38520   Biso      1.000     C          -0.098593           
         C37       1.0000    0.21610   0.88940   0.38490   Biso      1.000     C          -0.032839           
         C38       1.0000    0.22020   0.98710   0.38800   Biso      1.000     C          0.5861069999999999  
         C39       1.0000    0.21350   0.17880   0.94130   Biso      1.000     C          0.08187   
         C40       1.0000    0.21020   0.17640   0.84480   Biso      1.000     C          0.076223  
         C41       1.0000    0.12430   0.17370   0.80540   Biso      1.000     C          -0.147877           
         C42       1.0000    0.12280   0.16690   0.71580   Biso      1.000     C          -0.10859200000000001          
         C43       1.0000    0.29190   0.16680   0.69870   Biso      1.000     C          -0.110725           
         C44       1.0000    0.29510   0.14350   0.07270   Biso      1.000     C          -0.10088  
         C45       1.0000    0.29330   0.17330   0.78790   Biso      1.000     C          -0.155422           
         C46       1.0000    0.20560   0.16230   0.66080   Biso      1.000     C          -0.037808           
         C47       1.0000    0.20260   0.15480   0.56170   Biso      1.000     C          0.582469  
         C48       1.0000    0.13950   0.21450   0.99440   Biso      1.000     C          -0.152272           
         C49       1.0000    0.80010   0.57540   0.60610   Biso      1.000     C          -0.02077  
         C50       1.0000    0.71760   0.44680   0.64980   Biso      1.000     C          -0.15528699999999998          
         C51       1.0000    0.86980   0.43210   0.57260   Biso      1.000     C          -0.15004800000000001          
         C52       1.0000    0.61050   0.08060   0.41880   Biso      1.000     C          -0.166871           
         C53       1.0000    0.78370   0.83250   0.77660   Biso      1.000     C          0.600448  
         C54       1.0000    0.87380   0.52090   0.57090   Biso      1.000     C          -0.101164           
         C55       1.0000    0.78250   0.82550   0.87330   Biso      1.000     C          -0.020723           
         C56       1.0000    0.86030   0.79060   0.91520   Biso      1.000     C          -0.10399800000000001          
         C57       1.0000    0.86050   0.78550   0.00560   Biso      1.000     C          -0.152282           
         C58       1.0000    0.70850   0.85500   0.01680   Biso      1.000     C          -0.15528499999999998          
         C59       1.0000    0.79740   0.84520   0.43830   Biso      1.000     C          0.582469  
         C60       1.0000    0.79440   0.83770   0.33920   Biso      1.000     C          -0.037811000000000004         
         C61       1.0000    0.70670   0.82670   0.21210   Biso      1.000     C          -0.155422           
         C62       1.0000    0.70490   0.85650   0.92730   Biso      1.000     C          -0.100879           
         C63       1.0000    0.70810   0.83320   0.30130   Biso      1.000     C          -0.110725           
         C64       1.0000    0.80660   0.23490   0.38490   Biso      1.000     C          -0.18235099999999999          
         C65       1.0000    0.79020   0.29550   0.61460   Biso      1.000     C          0.06928200000000001           
         C66       1.0000    0.87720   0.83310   0.28420   Biso      1.000     C          -0.108589           
         C67       1.0000    0.70220   0.25550   0.61540   Biso      1.000     C          -0.158958           
         C68       1.0000    0.87240   0.23820   0.61450   Biso      1.000     C          -0.148274           
         C69       1.0000    0.86990   0.14840   0.61480   Biso      1.000     C          -0.098593           
         C70       1.0000    0.78390   0.11060   0.61510   Biso      1.000     C          -0.032839           
         C71       1.0000    0.69830   0.16580   0.61580   Biso      1.000     C          -0.113449           
         C72       1.0000    0.78650   0.82120   0.05870   Biso      1.000     C          0.08188   
         C73       1.0000    0.78980   0.82360   0.15520   Biso      1.000     C          0.076222  
         C74       1.0000    0.87570   0.82630   0.19460   Biso      1.000     C          -0.147877           
         C75       1.0000    0.79400   0.39170   0.61230   Biso      1.000     C          0.076782  
         C76       1.0000    0.77980   0.01290   0.61200   Biso      1.000     C          0.5861069999999999  
         H1        1.0000    0.67020   0.57190   0.67400   Biso      1.000     H          0.114844  
         H2        1.0000    0.51350   0.97310   0.56480   Biso      1.000     H          0.10708599999999999           
         H3        1.0000    0.53560   0.71930   0.64910   Biso      1.000     H          0.121742  
         H4        1.0000    0.35380   0.96800   0.55900   Biso      1.000     H          0.131056  
         H5        1.0000    0.37530   0.72430   0.66840   Biso      1.000     H          0.12958499999999998           
         H6        1.0000    0.20100   0.97560   0.60140   Biso      1.000     H          0.129134  
         H7        1.0000    0.23010   0.71190   0.62010   Biso      1.000     H          0.12979000000000002           
         H8        1.0000    0.06870   0.71250   0.61420   Biso      1.000     H          0.10351500000000001           
         H9        1.0000    0.04250   0.96860   0.60470   Biso      1.000     H          0.10603599999999999           
         H10       1.0000    0.92800   0.54490   0.54510   Biso      1.000     H          0.111767  
         H11       1.0000    0.64620   0.03200   0.44100   Biso      1.000     H          0.131056  
         H12       1.0000    0.93140   0.26160   0.61410   Biso      1.000     H          0.116752  
         H13       1.0000    0.64540   0.29140   0.61560   Biso      1.000     H          0.11100499999999999           
         H14       1.0000    0.63960   0.14170   0.61670   Biso      1.000     H          0.11893699999999999           
         H15       1.0000    0.66420   0.42210   0.67630   Biso      1.000     H          0.113551  
         H16       1.0000    0.93290   0.82350   0.16000   Biso      1.000     H          0.115818  
         H17       1.0000    0.93570   0.83450   0.30830   Biso      1.000     H          0.111977  
         H18       1.0000    0.65120   0.83460   0.33630   Biso      1.000     H          0.116923  
         H19       1.0000    0.64910   0.87870   0.90280   Biso      1.000     H          0.114001  
         H20       1.0000    0.64810   0.82430   0.18840   Biso      1.000     H          0.11153199999999999           
         H21       1.0000    0.65510   0.87810   0.05050   Biso      1.000     H          0.10677400000000001           
         H22       1.0000    0.91290   0.75660   0.03070   Biso      1.000     H          0.109482  
         H23       1.0000    0.91490   0.76950   0.88180   Biso      1.000     H          0.11253599999999998           
         H24       1.0000    0.92050   0.39740   0.54580   Biso      1.000     H          0.110125  
         H25       1.0000    0.92670   0.11260   0.61490   Biso      1.000     H          0.115585  
         H26       1.0000    0.07950   0.60260   0.45420   Biso      1.000     H          0.110125  
         H27       1.0000    0.32980   0.42810   0.32600   Biso      1.000     H          0.114844  
         H28       1.0000    0.08510   0.23050   0.11820   Biso      1.000     H          0.11253699999999998           
         H29       1.0000    0.08710   0.24340   0.96930   Biso      1.000     H          0.109482  
         H30       1.0000    0.34490   0.12190   0.94950   Biso      1.000     H          0.10677400000000001           
         H31       1.0000    0.35190   0.17570   0.81160   Biso      1.000     H          0.11153199999999999           
         H32       1.0000    0.35090   0.12130   0.09720   Biso      1.000     H          0.114001  
         H33       1.0000    0.34880   0.16540   0.66370   Biso      1.000     H          0.116923  
         H34       1.0000    0.06430   0.16550   0.69170   Biso      1.000     H          0.111977  
         H35       1.0000    0.06710   0.17650   0.84000   Biso      1.000     H          0.115818  
         H36       1.0000    0.33580   0.57790   0.32370   Biso      1.000     H          0.113551  
         H37       1.0000    0.36040   0.85830   0.38330   Biso      1.000     H          0.11893699999999999           
         H38       1.0000    0.07330   0.88740   0.38510   Biso      1.000     H          0.115585  
         H39       1.0000    0.06860   0.73840   0.38590   Biso      1.000     H          0.116752  
         H40       1.0000    0.07200   0.45510   0.45490   Biso      1.000     H          0.111768  
         H41       1.0000    0.95750   0.03140   0.39530   Biso      1.000     H          0.10603599999999999           
         H42       1.0000    0.93130   0.28750   0.38580   Biso      1.000     H          0.10351500000000001           
         H43       1.0000    0.76990   0.28810   0.37990   Biso      1.000     H          0.12979000000000002           
         H44       1.0000    0.79900   0.02440   0.39860   Biso      1.000     H          0.129134  
         H45       1.0000    0.62470   0.27570   0.33160   Biso      1.000     H          0.12958499999999998           
         H46       1.0000    0.46440   0.28070   0.35090   Biso      1.000     H          0.121742  
         H47       1.0000    0.48650   0.02690   0.43520   Biso      1.000     H          0.10708599999999999           
         H48       1.0000    0.35460   0.70860   0.38440   Biso      1.000     H          0.11100499999999999           
         N1        1.0000    0.96080   0.16080   0.39330   Biso      1.000     N          -0.189505           
         N2        1.0000    0.45860   0.15000   0.38780   Biso      1.000     N          -0.206914           
         N3        1.0000    0.54140   0.85000   0.61220   Biso      1.000     N          -0.206914           
         N4        1.0000    0.03920   0.83920   0.60670   Biso      1.000     N          -0.189505           
         O1        1.0000    0.87780   0.84870   0.46700   Biso      1.000     O          -0.543244           
         O2        1.0000    0.14180   0.03330   0.38690   Biso      1.000     O          -0.555333           
         O3        1.0000    0.13870   0.18430   0.26740   Biso      1.000     O          -0.56008  
         O4        1.0000    0.27680   0.28190   0.38210   Biso      1.000     O          -0.565521           
         O5        1.0000    0.11800   0.29540   0.41280   Biso      1.000     O          -0.55048  
         O6        1.0000    0.30140   0.01720   0.39230   Biso      1.000     O          -0.557434           
         O7        1.0000    0.29660   0.14750   0.25530   Biso      1.000     O          -0.564182           
         O8        1.0000    0.12220   0.15130   0.53300   Biso      1.000     O          -0.543244           
         O9        1.0000    0.28210   0.15260   0.51860   Biso      1.000     O          -0.565623           
         O10       1.0000    0.71790   0.84740   0.48140   Biso      1.000     O          -0.565623           
         O11       1.0000    0.88200   0.70460   0.58720   Biso      1.000     O          -0.55048  
         O12       1.0000    0.72320   0.71810   0.61790   Biso      1.000     O          -0.565521           
         O13       1.0000    0.70340   0.85250   0.74470   Biso      1.000     O          -0.564182           
         O14       1.0000    0.86130   0.81570   0.73260   Biso      1.000     O          -0.56008  
         O15       1.0000    0.85820   0.96670   0.61310   Biso      1.000     O          -0.555333           
         O16       1.0000    0.69860   0.98280   0.60770   Biso      1.000     O          -0.557434           
         Zn1       1.0000    0.10503   0.16471   0.39952   Biso      1.000     Zn          0.8358709999999999  
         Zn2       1.0000    0.68621   0.85101   0.61409   Biso      1.000     Zn          0.8319030000000001  
         Zn3       1.0000    0.31379   0.14899   0.38591   Biso      1.000     Zn          0.8319030000000001  
         Zn4       1.0000    0.89497   0.83529   0.60048   Biso      1.000     Zn          0.8358709999999999 