
##########################################################################
#               Crystallographic Information Format file
#               Produced by PyCifRW module
#
#  This is a CIF file.  CIF has been adopted by the International
#  Union of Crystallography as the standard for data archiving and
#  transmission.
#
#  For information on this file format, follow the CIF links at
#  http://www.iucr.org
##########################################################################

data_image0

_cell_length_a                          19.2564
_cell_length_b                          15.21
_cell_length_c                          15.21
_cell_angle_alpha                       90
_cell_angle_beta                        90
_cell_angle_gamma                       90
_symmetry_space_group_name_H-M          'P 1'
_symmetry_int_tables_number             1
loop_
  _symmetry_equiv_pos_as_xyz
         'x, y, z' 
loop_
  _atom_site_label
  _atom_site_occupancy
  _atom_site_fract_x
  _atom_site_fract_y
  _atom_site_fract_z
  _atom_site_thermal_displace_type
  _atom_site_B_iso_or_equiv
  _atom_site_type_symbol
  _atom_site_charge
         C1        1.0000    0.31117   0.69872   0.97607   Biso      1.000     C          -0.095075           
         C2        1.0000    0.18929   0.40679   0.97563   Biso      1.000     C          -0.13986  
         C3        1.0000    0.18919   0.31379   0.97627   Biso      1.000     C          -0.093248           
         C4        1.0000    0.18932   0.60566   0.01107   Biso      1.000     C          -0.138513           
         C5        1.0000    0.18922   0.69865   0.01045   Biso      1.000     C          -0.094047           
         C6        1.0000    0.18948   0.98716   0.39375   Biso      1.000     C          -0.140686           
         C7        1.0000    0.18940   0.98777   0.30075   Biso      1.000     C          -0.093576           
         C8        1.0000    0.68921   0.02271   0.68551   Biso      1.000     C          -0.093143           
         C9        1.0000    0.18924   0.02324   0.59254   Biso      1.000     C          -0.139451           
         C10       1.0000    0.31113   0.60570   0.97546   Biso      1.000     C          -0.139697           
         C11       1.0000    0.75012   0.16561   0.99326   Biso      1.000     C          0.598954  
         C12       1.0000    0.31116   0.40676   0.01089   Biso      1.000     C          -0.140336           
         C13       1.0000    0.31121   0.31375   0.01030   Biso      1.000     C          -0.093605           
         C14       1.0000    0.31097   0.02448   0.39373   Biso      1.000     C          -0.140465           
         C15       1.0000    0.31102   0.02395   0.30072   Biso      1.000     C          -0.094768           
         C16       1.0000    0.18914   0.02267   0.68554   Biso      1.000     C          -0.093767           
         C17       1.0000    0.31118   0.98839   0.59261   Biso      1.000     C          -0.139774           
         C18       1.0000    0.81109   0.60571   0.97538   Biso      1.000     C          -0.14022  
         C19       1.0000    0.81112   0.40677   0.01083   Biso      1.000     C          -0.140643           
         C20       1.0000    0.75013   0.84688   0.99319   Biso      1.000     C          0.596718  
         C21       1.0000    0.75016   0.74712   0.99320   Biso      1.000     C          -0.032061           
         C22       1.0000    0.75020   0.55663   0.99321   Biso      1.000     C          0.069115  
         C23       1.0000    0.95984   0.91644   0.97923   Biso      1.000     C          -0.088022           
         C24       1.0000    0.95981   0.04012   0.07800   Biso      1.000     C          -0.086761           
         C25       1.0000    0.95979   0.06383   0.92160   Biso      1.000     C          -0.086416           
         C26       1.0000    0.81114   0.69872   0.97598   Biso      1.000     C          -0.095057           
         C27       1.0000    0.54041   0.06200   0.92017   Biso      1.000     C          -0.085508           
         C28       1.0000    0.54039   0.04227   0.07711   Biso      1.000     C          -0.087863           
         C29       1.0000    0.81127   0.98896   0.68558   Biso      1.000     C          -0.093355           
         C30       1.0000    0.81123   0.98838   0.59257   Biso      1.000     C          -0.140377           
         C31       1.0000    0.81103   0.02392   0.30067   Biso      1.000     C          -0.094789           
         C32       1.0000    0.81099   0.02444   0.39368   Biso      1.000     C          -0.140376           
         C33       1.0000    0.81117   0.31376   0.01024   Biso      1.000     C          -0.093437           
         C34       1.0000    0.54037   0.91612   0.98153   Biso      1.000     C          -0.087271           
         C35       1.0000    0.31121   0.98896   0.68562   Biso      1.000     C          -0.093925           
         C36       1.0000    0.04037   0.04033   0.07794   Biso      1.000     C          -0.086637           
         C37       1.0000    0.04037   0.91641   0.97948   Biso      1.000     C          -0.086651           
         C38       1.0000    0.75019   0.00591   0.83376   Biso      1.000     C          0.598999  
         C39       1.0000    0.75022   0.00583   0.73398   Biso      1.000     C          -0.034022           
         C40       1.0000    0.75027   0.00581   0.54351   Biso      1.000     C          0.07061   
         C41       1.0000    0.75014   0.00596   0.15250   Biso      1.000     C          0.597877  
         C42       1.0000    0.75019   0.00587   0.25227   Biso      1.000     C          -0.032097           
         C43       1.0000    0.75026   0.00580   0.44274   Biso      1.000     C          0.070656  
         C44       1.0000    0.68924   0.40680   0.97561   Biso      1.000     C          -0.140533           
         C45       1.0000    0.68914   0.31380   0.97625   Biso      1.000     C          -0.093361           
         C46       1.0000    0.68929   0.60567   0.01103   Biso      1.000     C          -0.139101           
         C47       1.0000    0.68920   0.69867   0.01040   Biso      1.000     C          -0.094142           
         C48       1.0000    0.68950   0.98717   0.39373   Biso      1.000     C          -0.140731           
         C49       1.0000    0.68939   0.98778   0.30073   Biso      1.000     C          -0.093627           
         C50       1.0000    0.75019   0.45584   0.99321   Biso      1.000     C          0.071356  
         C51       1.0000    0.25012   0.00589   0.83379   Biso      1.000     C          0.59922   
         C52       1.0000    0.68929   0.02327   0.59252   Biso      1.000     C          -0.139617           
         C53       1.0000    0.25022   0.00581   0.54354   Biso      1.000     C          0.070419  
         C54       1.0000    0.04041   0.06366   0.92149   Biso      1.000     C          -0.086582           
         C55       1.0000    0.45979   0.06219   0.92031   Biso      1.000     C          -0.087592           
         C56       1.0000    0.45982   0.04203   0.07720   Biso      1.000     C          -0.08795  
         C57       1.0000    0.45984   0.91614   0.98126   Biso      1.000     C          -0.088477           
         C58       1.0000    0.25015   0.00581   0.73402   Biso      1.000     C          -0.033806           
         C59       1.0000    0.25018   0.74711   0.99325   Biso      1.000     C          -0.032424           
         C60       1.0000    0.25023   0.55662   0.99326   Biso      1.000     C          0.06858   
         C61       1.0000    0.25023   0.45583   0.99326   Biso      1.000     C          0.070848  
         C62       1.0000    0.25019   0.26535   0.99331   Biso      1.000     C          -0.033631           
         C63       1.0000    0.25017   0.16560   0.99329   Biso      1.000     C          0.598917  
         C64       1.0000    0.25023   0.00581   0.44278   Biso      1.000     C          0.070945  
         C65       1.0000    0.25020   0.00587   0.25230   Biso      1.000     C          -0.031958           
         C66       1.0000    0.25016   0.00596   0.15253   Biso      1.000     C          0.597629  
         C67       1.0000    0.25014   0.84687   0.99324   Biso      1.000     C          0.596998  
         C68       1.0000    0.75014   0.26536   0.99327   Biso      1.000     C          -0.033759           
         H1        1.0000    0.64117   0.43994   0.95980   Biso      1.000     H          0.100346  
         H2        1.0000    0.64104   0.27969   0.96226   Biso      1.000     H          0.099197  
         H3        1.0000    0.64125   0.57254   0.02699   Biso      1.000     H          0.099977  
         H4        1.0000    0.64113   0.73276   0.02457   Biso      1.000     H          0.100653  
         H5        1.0000    0.06019   0.10801   0.08975   Biso      1.000     H          0.10283   
         H6        1.0000    0.94029   0.87227   0.03201   Biso      1.000     H          0.100396  
         H7        1.0000    0.94016   0.88991   0.91577   Biso      1.000     H          0.10001   
         H8        1.0000    0.93979   0.10766   0.09012   Biso      1.000     H          0.099295  
         H9        1.0000    0.94067   0.99810   0.13270   Biso      1.000     H          0.097635  
         H10       1.0000    0.94026   0.04037   0.85693   Biso      1.000     H          0.097336  
         H11       1.0000    0.94017   0.13206   0.93032   Biso      1.000     H          0.10037   
         H12       1.0000    0.56027   0.13033   0.92690   Biso      1.000     H          0.098034  
         H13       1.0000    0.55967   0.03663   0.85611   Biso      1.000     H          0.096143  
         H14       1.0000    0.56029   0.88782   0.91897   Biso      1.000     H          0.103068  
         H15       1.0000    0.55968   0.87345   0.03566   Biso      1.000     H          0.098294  
         H16       1.0000    0.64160   0.97058   0.42691   Biso      1.000     H          0.100427  
         H17       1.0000    0.64146   0.97289   0.26666   Biso      1.000     H          0.100018  
         H18       1.0000    0.56018   0.11022   0.08734   Biso      1.000     H          0.103328  
         H19       1.0000    0.64109   0.03668   0.71957   Biso      1.000     H          0.099445  
         H20       1.0000    0.44019   0.88820   0.91840   Biso      1.000     H          0.099809  
         H21       1.0000    0.35893   0.03894   0.26661   Biso      1.000     H          0.101081  
         H22       1.0000    0.35887   0.04107   0.42690   Biso      1.000     H          0.100109  
         H23       1.0000    0.35930   0.27960   0.02430   Biso      1.000     H          0.099424  
         H24       1.0000    0.35925   0.43988   0.02668   Biso      1.000     H          0.100214  
         H25       1.0000    0.35923   0.73286   0.96190   Biso      1.000     H          0.101847  
         H26       1.0000    0.35919   0.57259   0.95953   Biso      1.000     H          0.099906  
         H27       1.0000    0.43978   0.10981   0.08781   Biso      1.000     H          0.100005  
         H28       1.0000    0.14102   0.03661   0.71959   Biso      1.000     H          0.09987   
         H29       1.0000    0.14121   0.43993   0.95981   Biso      1.000     H          0.099987  
         H30       1.0000    0.14109   0.27968   0.96226   Biso      1.000     H          0.099007  
         H31       1.0000    0.14127   0.57252   0.02702   Biso      1.000     H          0.09973   
         H32       1.0000    0.14114   0.73273   0.02460   Biso      1.000     H          0.100532  
         H33       1.0000    0.14159   0.97055   0.42692   Biso      1.000     H          0.100406  
         H34       1.0000    0.14147   0.97286   0.26666   Biso      1.000     H          0.099872  
         H35       1.0000    0.14115   0.03887   0.55935   Biso      1.000     H          0.099717  
         H36       1.0000    0.64120   0.03891   0.55933   Biso      1.000     H          0.100025  
         H37       1.0000    0.44071   0.00125   0.13285   Biso      1.000     H          0.097422  
         H38       1.0000    0.44026   0.87317   0.03501   Biso      1.000     H          0.100786  
         H39       1.0000    0.44015   0.13059   0.92749   Biso      1.000     H          0.100703  
         H40       1.0000    0.85921   0.43989   0.02659   Biso      1.000     H          0.099903  
         H41       1.0000    0.85926   0.27960   0.02424   Biso      1.000     H          0.099598  
         H42       1.0000    0.85891   0.04101   0.42684   Biso      1.000     H          0.099972  
         H43       1.0000    0.85893   0.03888   0.26655   Biso      1.000     H          0.101302  
         H44       1.0000    0.85934   0.97276   0.55941   Biso      1.000     H          0.100095  
         H45       1.0000    0.44026   0.03727   0.85619   Biso      1.000     H          0.097684  
         H46       1.0000    0.85938   0.97506   0.71973   Biso      1.000     H          0.099629  
         H47       1.0000    0.85920   0.73286   0.96179   Biso      1.000     H          0.10188   
         H48       1.0000    0.35932   0.97507   0.71977   Biso      1.000     H          0.099846  
         H49       1.0000    0.55972   0.00189   0.13290   Biso      1.000     H          0.096641  
         H50       1.0000    0.05968   0.99864   0.13278   Biso      1.000     H          0.096361  
         H51       1.0000    0.05965   0.87251   0.03263   Biso      1.000     H          0.097795  
         H52       1.0000    0.06030   0.88956   0.91629   Biso      1.000     H          0.102837  
         H53       1.0000    0.05972   0.03981   0.85687   Biso      1.000     H          0.096348  
         H54       1.0000    0.06024   0.13183   0.92982   Biso      1.000     H          0.098216  
         H55       1.0000    0.35930   0.97280   0.55946   Biso      1.000     H          0.099904  
         H56       1.0000    0.85914   0.57259   0.95943   Biso      1.000     H          0.100105  
         N1        1.0000    0.93318   0.00672   0.99296   Biso      1.000     N          -0.117976           
         N2        1.0000    0.56704   0.00672   0.99295   Biso      1.000     N          -0.118533           
         N3        1.0000    0.43318   0.00671   0.99295   Biso      1.000     N          -0.117114           
         N4        1.0000    0.06703   0.00673   0.99299   Biso      1.000     N          -0.118881           
         O1        1.0000    0.80755   0.00636   0.11045   Biso      1.000     O          -0.582658           
         O2        1.0000    0.80761   0.12362   0.99350   Biso      1.000     O          -0.583577           
         O3        1.0000    0.80764   0.00571   0.87577   Biso      1.000     O          -0.58224  
         O4        1.0000    0.69262   0.12363   0.99298   Biso      1.000     O          -0.583658           
         O5        1.0000    0.30754   0.88892   0.99293   Biso      1.000     O          -0.583461           
         O6        1.0000    0.69272   0.00569   0.11049   Biso      1.000     O          -0.581303           
         O7        1.0000    0.69271   0.88889   0.99346   Biso      1.000     O          -0.582847           
         O8        1.0000    0.80753   0.88893   0.99290   Biso      1.000     O          -0.583267           
         O9        1.0000    0.19272   0.88888   0.99351   Biso      1.000     O          -0.582836           
         O10       1.0000    0.19274   0.00570   0.11052   Biso      1.000     O          -0.581155           
         O11       1.0000    0.19265   0.00624   0.87579   Biso      1.000     O          -0.582863           
         O12       1.0000    0.19267   0.12361   0.99302   Biso      1.000     O          -0.583643           
         O13       1.0000    0.30757   0.00635   0.11049   Biso      1.000     O          -0.582602           
         O14       1.0000    0.30756   0.00569   0.87581   Biso      1.000     O          -0.581713           
         O15       1.0000    0.30766   0.12361   0.99351   Biso      1.000     O          -0.583688           
         O16       1.0000    0.69273   0.00626   0.87576   Biso      1.000     O          -0.582041           
         Zn1       1.0000    0.83309   0.00631   0.99311   Biso      1.000     Zn          0.979118  
         Zn2       1.0000    0.66716   0.00629   0.99311   Biso      1.000     Zn          0.978516  
         Zn3       1.0000    0.16716   0.00628   0.99315   Biso      1.000     Zn          0.978811  
         Zn4       1.0000    0.33310   0.00630   0.99312   Biso      1.000     Zn          0.979189 