
##########################################################################
#               Crystallographic Information Format file
#               Produced by PyCifRW module
#
#  This is a CIF file.  CIF has been adopted by the International
#  Union of Crystallography as the standard for data archiving and
#  transmission.
#
#  For information on this file format, follow the CIF links at
#  http://www.iucr.org
##########################################################################

data_image0

_cell_length_a                          18.0802
_cell_length_b                          18.0802
_cell_length_c                          18.0802
_cell_angle_alpha                       134.594
_cell_angle_beta                        98.557
_cell_angle_gamma                       98.5763
_symmetry_space_group_name_H-M          'P 1'
_symmetry_int_tables_number             1
loop_
  _symmetry_equiv_pos_as_xyz
         'x, y, z' 
loop_
  _atom_site_label
  _atom_site_occupancy
  _atom_site_fract_x
  _atom_site_fract_y
  _atom_site_fract_z
  _atom_site_thermal_displace_type
  _atom_site_B_iso_or_equiv
  _atom_site_type_symbol
  _atom_site_charge
         C1        1.0000    0.56670   0.75000   0.31670   Biso      1.000     C          -0.213651           
         C2        1.0000    0.89030   0.32080   0.22490   Biso      1.000     C          0.244799  
         C3        1.0000    0.89520   0.41550   0.34170   Biso      1.000     C          -0.516591           
         C4        1.0000    0.35400   0.95330   0.04630   Biso      1.000     C          -0.515478           
         C5        1.0000    0.35190   0.03430   0.15860   Biso      1.000     C          0.252254  
         C6        1.0000    0.51410   0.17080   0.20310   Biso      1.000     C          -0.157895           
         C7        1.0000    0.58070   0.23310   0.20880   Biso      1.000     C          -0.113557           
         C8        1.0000    0.41930   0.76690   0.79120   Biso      1.000     C          -0.113557           
         C9        1.0000    0.48590   0.82920   0.79690   Biso      1.000     C          -0.157895           
         C10       1.0000    0.64810   0.96570   0.84140   Biso      1.000     C          0.252254  
         C11       1.0000    0.64600   0.04670   0.95370   Biso      1.000     C          -0.515478           
         C12       1.0000    0.10480   0.58450   0.65830   Biso      1.000     C          -0.516591           
         C13       1.0000    0.10970   0.67920   0.77510   Biso      1.000     C          0.244798  
         C14       1.0000    0.94060   0.65080   0.65580   Biso      1.000     C          -0.166599           
         C15       1.0000    0.96770   0.67080   0.15670   Biso      1.000     C          -0.157874           
         C16       1.0000    0.88240   0.65280   0.59780   Biso      1.000     C          -0.091276           
         C17       1.0000    0.44500   0.71540   0.09780   Biso      1.000     C          -0.091276           
         C18       1.0000    0.50500   0.71520   0.15580   Biso      1.000     C          -0.166597           
         C19       1.0000    0.40700   0.30770   0.45370   Biso      1.000     C          -0.515491           
         C20       1.0000    0.37570   0.19330   0.34140   Biso      1.000     C          0.252257  
         C21       1.0000    0.46770   0.31100   0.29690   Biso      1.000     C          -0.157896           
         C22       1.0000    0.59590   0.66540   0.27510   Biso      1.000     C          0.244782  
         C23       1.0000    0.55500   0.28460   0.90220   Biso      1.000     C          -0.091274           
         C24       1.0000    0.52430   0.37190   0.29120   Biso      1.000     C          -0.113548           
         C25       1.0000    0.05940   0.34920   0.34420   Biso      1.000     C          -0.166598           
         C26       1.0000    0.40410   0.33460   0.72490   Biso      1.000     C          0.244783  
         C27       1.0000    0.90700   0.45330   0.09930   Biso      1.000     C          -0.515488           
         C28       1.0000    0.02430   0.73310   0.15240   Biso      1.000     C          -0.113562           
         C29       1.0000    0.38240   0.78460   0.22960   Biso      1.000     C          -0.091289           
         C30       1.0000    0.44060   0.78480   0.28980   Biso      1.000     C          -0.166593           
         C31       1.0000    0.60970   0.83460   0.43050   Biso      1.000     C          0.24478   
         C32       1.0000    0.92620   0.08450   0.97970   Biso      1.000     C          -0.516588           
         C33       1.0000    0.90410   0.17920   0.06950   Biso      1.000     C          0.244789  
         C34       1.0000    0.60480   0.94650   0.52030   Biso      1.000     C          -0.516608           
         C35       1.0000    0.99500   0.15080   0.21020   Biso      1.000     C          -0.166595           
         C36       1.0000    0.50410   0.75000   0.25410   Biso      1.000     C          0.135413  
         C37       1.0000    0.05500   0.15280   0.27040   Biso      1.000     C          -0.09129  
         C38       1.0000    0.85400   0.80770   0.40070   Biso      1.000     C          -0.51549  
         C39       1.0000    0.85190   0.69330   0.31760   Biso      1.000     C          0.252255  
         C40       1.0000    0.47570   0.62810   0.70880   Biso      1.000     C          -0.113548           
         C41       1.0000    0.01410   0.81100   0.34330   Biso      1.000     C          -0.157872           
         C42       1.0000    0.08070   0.87190   0.34760   Biso      1.000     C          -0.113555           
         C43       1.0000    0.53230   0.68900   0.70310   Biso      1.000     C          -0.157896           
         C44       1.0000    0.62430   0.80670   0.65860   Biso      1.000     C          0.252257  
         C45       1.0000    0.59300   0.69230   0.54630   Biso      1.000     C          -0.515491           
         C46       1.0000    0.11760   0.34720   0.40220   Biso      1.000     C          -0.091278           
         C47       1.0000    0.42620   0.44650   0.84170   Biso      1.000     C          -0.516589           
         C48       1.0000    0.49500   0.28480   0.84420   Biso      1.000     C          -0.166597           
         C49       1.0000    0.57380   0.55350   0.15830   Biso      1.000     C          -0.516589           
         C50       1.0000    0.87570   0.53430   0.18240   Biso      1.000     C          0.252258  
         C51       1.0000    0.03230   0.32920   0.84330   Biso      1.000     C          -0.157874           
         C52       1.0000    0.00500   0.84920   0.78980   Biso      1.000     C          -0.166597           
         C53       1.0000    0.49590   0.25000   0.74590   Biso      1.000     C          0.135413  
         C54       1.0000    0.91930   0.12810   0.65240   Biso      1.000     C          -0.113555           
         C55       1.0000    0.96400   0.71400   0.25000   Biso      1.000     C          0.154808  
         C56       1.0000    0.97570   0.26690   0.84760   Biso      1.000     C          -0.113562           
         C57       1.0000    0.90160   0.65160   0.25000   Biso      1.000     C          -0.23713  
         C58       1.0000    0.35390   0.60390   0.75000   Biso      1.000     C          0.629981  
         C59       1.0000    0.11490   0.25000   0.36490   Biso      1.000     C          -0.035919           
         C60       1.0000    0.41670   0.66670   0.75000   Biso      1.000     C          -0.048768           
         C61       1.0000    0.08330   0.83330   0.25000   Biso      1.000     C          -0.048766           
         C62       1.0000    0.53600   0.78600   0.75000   Biso      1.000     C          0.154819  
         C63       1.0000    0.98590   0.18900   0.65670   Biso      1.000     C          -0.157872           
         C64       1.0000    0.82200   0.75000   0.57200   Biso      1.000     C          0.576967  
         C65       1.0000    0.88510   0.75000   0.63510   Biso      1.000     C          -0.035935           
         C66       1.0000    0.00410   0.75000   0.75410   Biso      1.000     C          0.135422  
         C67       1.0000    0.17800   0.25000   0.42800   Biso      1.000     C          0.576965  
         C68       1.0000    0.14810   0.30670   0.68240   Biso      1.000     C          0.252256  
         C69       1.0000    0.14600   0.19230   0.59930   Biso      1.000     C          -0.51549  
         C70       1.0000    0.07380   0.91550   0.02030   Biso      1.000     C          -0.516588           
         C71       1.0000    0.09590   0.82080   0.93050   Biso      1.000     C          0.24479   
         C72       1.0000    0.59840   0.84840   0.75000   Biso      1.000     C          -0.23713  
         C73       1.0000    0.43330   0.25000   0.68330   Biso      1.000     C          -0.213651           
         C74       1.0000    0.99590   0.25000   0.24590   Biso      1.000     C          0.135422  
         C75       1.0000    0.64610   0.39610   0.25000   Biso      1.000     C          0.629981  
         C76       1.0000    0.38510   0.75000   0.13510   Biso      1.000     C          -0.035919           
         C77       1.0000    0.85390   0.10390   0.75000   Biso      1.000     C          0.629981  
         C78       1.0000    0.91670   0.16670   0.75000   Biso      1.000     C          -0.048766           
         C79       1.0000    0.32200   0.75000   0.07200   Biso      1.000     C          0.576966  
         C80       1.0000    0.03600   0.28600   0.75000   Biso      1.000     C          0.154808  
         C81       1.0000    0.09840   0.34840   0.75000   Biso      1.000     C          -0.23713  
         C82       1.0000    0.39520   0.05350   0.47970   Biso      1.000     C          -0.516608           
         C83       1.0000    0.61490   0.25000   0.86490   Biso      1.000     C          -0.035935           
         C84       1.0000    0.39030   0.16540   0.56950   Biso      1.000     C          0.24478   
         C85       1.0000    0.12430   0.46570   0.81760   Biso      1.000     C          0.252258  
         C86       1.0000    0.06670   0.75000   0.81670   Biso      1.000     C          -0.213661           
         C87       1.0000    0.58330   0.33330   0.25000   Biso      1.000     C          -0.048768           
         C88       1.0000    0.94500   0.84720   0.72960   Biso      1.000     C          -0.091274           
         C89       1.0000    0.61760   0.21540   0.77040   Biso      1.000     C          -0.091273           
         C90       1.0000    0.46400   0.21400   0.25000   Biso      1.000     C          0.154819  
         C91       1.0000    0.67800   0.25000   0.92800   Biso      1.000     C          0.576968  
         C92       1.0000    0.40160   0.15160   0.25000   Biso      1.000     C          -0.23713  
         C93       1.0000    0.14610   0.89610   0.25000   Biso      1.000     C          0.629981  
         C94       1.0000    0.93330   0.25000   0.18330   Biso      1.000     C          -0.213661           
         C95       1.0000    0.09300   0.54670   0.90070   Biso      1.000     C          -0.515488           
         C96       1.0000    0.55940   0.21520   0.71020   Biso      1.000     C          -0.166595           
         H1        1.0000    0.64230   0.98540   0.59250   Biso      1.000     H          0.162971  
         H2        1.0000    0.51720   0.51030   0.12910   Biso      1.000     H          0.172131  
         H3        1.0000    0.34030   0.80890   0.25500   Biso      1.000     H          0.117047  
         H4        1.0000    0.96440   0.47660   0.13500   Biso      1.000     H          0.176434  
         H5        1.0000    0.89870   0.44870   0.04120   Biso      1.000     H          0.171224  
         H6        1.0000    0.87870   0.38020   0.06590   Biso      1.000     H          0.155793  
         H7        1.0000    0.43770   0.80860   0.35530   Biso      1.000     H          0.116389  
         H8        1.0000    0.61880   0.98970   0.50690   Biso      1.000     H          0.172131  
         H9        1.0000    0.15970   0.41470   0.46860   Biso      1.000     H          0.117044  
         H10       1.0000    0.47940   0.56250   0.68430   Biso      1.000     H          0.115725  
         H11       1.0000    0.58290   0.56220   0.11230   Biso      1.000     H          0.162848  
         H12       1.0000    0.54670   0.69140   0.12910   Biso      1.000     H          0.116387  
         H13       1.0000    0.44610   0.69110   0.03140   Biso      1.000     H          0.117045  
         H14       1.0000    0.59250   0.05130   0.95000   Biso      1.000     H          0.171223  
         H15       1.0000    0.68570   0.11980   0.99850   Biso      1.000     H          0.155789  
         H16       1.0000    0.49250   0.90310   0.83600   Biso      1.000     H          0.107697  
         H17       1.0000    0.37820   0.79510   0.81570   Biso      1.000     H          0.115733  
         H18       1.0000    0.55010   0.93780   0.52070   Biso      1.000     H          0.162865  
         H19       1.0000    0.94990   0.47060   0.38770   Biso      1.000     H          0.162849  
         H20       1.0000    0.85770   0.45020   0.34310   Biso      1.000     H          0.162971  
         H21       1.0000    0.06230   0.41760   0.37090   Biso      1.000     H          0.116386  
         H22       1.0000    0.60710   0.51460   0.15690   Biso      1.000     H          0.16297   
         H23       1.0000    0.53560   0.67060   0.51220   Biso      1.000     H          0.176436  
         H24       1.0000    0.60130   0.64250   0.55000   Biso      1.000     H          0.171225  
         H25       1.0000    0.62130   0.68720   0.50150   Biso      1.000     H          0.155792  
         H26       1.0000    0.56710   0.65650   0.66400   Biso      1.000     H          0.107697  
         H27       1.0000    0.88120   0.38810   0.37090   Biso      1.000     H          0.17213   
         H28       1.0000    0.65840   0.02340   0.98780   Biso      1.000     H          0.176431  
         H29       1.0000    0.05390   0.08530   0.24500   Biso      1.000     H          0.117048  
         H30       1.0000    0.02060   0.70490   0.08310   Biso      1.000     H          0.115735  
         H31       1.0000    0.93290   0.59690   0.08940   Biso      1.000     H          0.107683  
         H32       1.0000    0.11880   0.61190   0.62910   Biso      1.000     H          0.17213   
         H33       1.0000    0.14230   0.54980   0.65690   Biso      1.000     H          0.162971  
         H34       1.0000    0.93770   0.58240   0.62910   Biso      1.000     H          0.116386  
         H35       1.0000    0.84030   0.58530   0.53140   Biso      1.000     H          0.117044  
         H36       1.0000    0.46440   0.32940   0.48780   Biso      1.000     H          0.176436  
         H37       1.0000    0.39870   0.35750   0.45000   Biso      1.000     H          0.171225  
         H38       1.0000    0.37870   0.31280   0.49850   Biso      1.000     H          0.155792  
         H39       1.0000    0.43290   0.34350   0.33600   Biso      1.000     H          0.107697  
         H40       1.0000    0.52060   0.43750   0.31570   Biso      1.000     H          0.115725  
         H41       1.0000    0.44990   0.06220   0.47930   Biso      1.000     H          0.162865  
         H42       1.0000    0.38120   0.01030   0.49310   Biso      1.000     H          0.172131  
         H43       1.0000    0.35770   0.01460   0.40750   Biso      1.000     H          0.162971  
         H44       1.0000    0.56230   0.19140   0.64470   Biso      1.000     H          0.116389  
         H45       1.0000    0.62180   0.20490   0.18430   Biso      1.000     H          0.115733  
         H46       1.0000    0.65970   0.19110   0.74500   Biso      1.000     H          0.117046  
         H47       1.0000    0.10130   0.55130   0.95880   Biso      1.000     H          0.171224  
         H48       1.0000    0.12130   0.61980   0.93410   Biso      1.000     H          0.155793  
         H49       1.0000    0.06710   0.40310   0.91060   Biso      1.000     H          0.107683  
         H50       1.0000    0.97940   0.29510   0.91690   Biso      1.000     H          0.115735  
         H51       1.0000    0.08290   0.97060   0.02070   Biso      1.000     H          0.162849  
         H52       1.0000    0.01720   0.88810   0.00690   Biso      1.000     H          0.17213   
         H53       1.0000    0.10710   0.95020   0.09250   Biso      1.000     H          0.16297   
         H54       1.0000    0.04670   0.91760   0.85530   Biso      1.000     H          0.116388  
         H55       1.0000    0.94610   0.91470   0.75500   Biso      1.000     H          0.117047  
         H56       1.0000    0.15840   0.17060   0.63500   Biso      1.000     H          0.176434  
         H57       1.0000    0.09250   0.14250   0.54120   Biso      1.000     H          0.171226  
         H58       1.0000    0.18570   0.18720   0.56590   Biso      1.000     H          0.155792  
         H59       1.0000    0.99250   0.15650   0.58940   Biso      1.000     H          0.107684  
         H60       1.0000    0.87820   0.06250   0.58310   Biso      1.000     H          0.115725  
         H61       1.0000    0.03560   0.52340   0.86500   Biso      1.000     H          0.176434  
         H62       1.0000    0.50750   0.09690   0.16400   Biso      1.000     H          0.107697  
         H63       1.0000    0.05010   0.52940   0.61230   Biso      1.000     H          0.162849  
         H64       1.0000    0.40750   0.94870   0.05000   Biso      1.000     H          0.171223  
         H65       1.0000    0.91710   0.02940   0.97930   Biso      1.000     H          0.162849  
         H66       1.0000    0.98280   0.11190   0.99310   Biso      1.000     H          0.17213   
         H67       1.0000    0.89290   0.04980   0.90750   Biso      1.000     H          0.16297   
         H68       1.0000    0.95330   0.08240   0.14470   Biso      1.000     H          0.116388  
         H69       1.0000    0.84160   0.82940   0.36500   Biso      1.000     H          0.176434  
         H70       1.0000    0.90750   0.85750   0.45880   Biso      1.000     H          0.171226  
         H71       1.0000    0.81430   0.81280   0.43410   Biso      1.000     H          0.155792  
         H72       1.0000    0.31430   0.88020   0.00150   Biso      1.000     H          0.155789  
         H73       1.0000    0.12180   0.93750   0.41690   Biso      1.000     H          0.115725  
         H74       1.0000    0.41710   0.43780   0.88770   Biso      1.000     H          0.162848  
         H75       1.0000    0.48280   0.48970   0.87090   Biso      1.000     H          0.172131  
         H76       1.0000    0.39290   0.48540   0.84310   Biso      1.000     H          0.16297   
         H77       1.0000    0.00750   0.84350   0.41060   Biso      1.000     H          0.107684  
         H78       1.0000    0.55390   0.30890   0.96860   Biso      1.000     H          0.117045  
         H79       1.0000    0.34160   0.97660   0.01220   Biso      1.000     H          0.176431  
         H80       1.0000    0.45330   0.30860   0.87090   Biso      1.000     H          0.116387  
         N1        1.0000    0.19830   0.39060   0.71070   Biso      1.000     N          -0.283661           
         N2        1.0000    0.15300   0.79530   0.95570   Biso      1.000     N          -0.274408           
         N3        1.0000    0.66040   0.80270   0.45570   Biso      1.000     N          -0.274404           
         N4        1.0000    0.82010   0.51240   0.21070   Biso      1.000     N          -0.283661           
         N5        1.0000    0.34700   0.30270   0.64230   Biso      1.000     N          -0.274401           
         N6        1.0000    0.69830   0.98760   0.80770   Biso      1.000     N          -0.283666           
         N7        1.0000    0.17990   0.48760   0.78930   Biso      1.000     N          -0.283657           
         N8        1.0000    0.33960   0.19730   0.54430   Biso      1.000     N          -0.274395           
         N9        1.0000    0.30170   0.01240   0.19230   Biso      1.000     N          -0.283666           
         N10       1.0000    0.67990   0.89060   0.69230   Biso      1.000     N          -0.283655           
         N11       1.0000    0.83960   0.29530   0.14230   Biso      1.000     N          -0.274414           
         N12       1.0000    0.65300   0.69730   0.35770   Biso      1.000     N          -0.274392           
         N13       1.0000    0.84700   0.20470   0.04430   Biso      1.000     N          -0.274399           
         N14       1.0000    0.32010   0.10940   0.30770   Biso      1.000     N          -0.283655           
         N15       1.0000    0.80170   0.60940   0.28930   Biso      1.000     N          -0.283657           
         N16       1.0000    0.16040   0.70470   0.85770   Biso      1.000     N          -0.274405           
         O1        1.0000    0.70500   0.36810   0.23290   Biso      1.000     O          -0.542028           
         O2        1.0000    0.79500   0.02790   0.66310   Biso      1.000     O          -0.542027           
         O3        1.0000    0.82460   0.84440   0.61220   Biso      1.000     O          -0.53985  
         O4        1.0000    0.20500   0.97210   0.33690   Biso      1.000     O          -0.542027           
         O5        1.0000    0.17540   0.15560   0.38780   Biso      1.000     O          -0.53985  
         O6        1.0000    0.26780   0.78760   0.11220   Biso      1.000     O          -0.539851           
         O7        1.0000    0.13520   0.86810   0.16310   Biso      1.000     O          -0.542028           
         O8        1.0000    0.29500   0.63190   0.76710   Biso      1.000     O          -0.542028           
         O9        1.0000    0.67540   0.28760   0.01980   Biso      1.000     O          -0.539849           
         O10       1.0000    0.32460   0.71240   0.98020   Biso      1.000     O          -0.539849           
         O11       1.0000    0.86480   0.13190   0.83690   Biso      1.000     O          -0.542028           
         O12       1.0000    0.73220   0.21240   0.88780   Biso      1.000     O          -0.539851           
         O13       1.0000    0.76780   0.65560   0.48020   Biso      1.000     O          -0.539847           
         O14       1.0000    0.63520   0.47210   0.26710   Biso      1.000     O          -0.542029           
         O15       1.0000    0.36480   0.52790   0.73290   Biso      1.000     O          -0.542029           
         O16       1.0000    0.23220   0.34440   0.51980   Biso      1.000     O          -0.539848           
         Zn1       1.0000    0.23328   0.62903   0.84727   Biso      1.000     Zn          0.765186  
         Zn2       1.0000    0.21824   0.87097   0.10425   Biso      1.000     Zn          0.765189  
         Zn3       1.0000    0.71824   0.61399   0.34727   Biso      1.000     Zn          0.765185  
         Zn4       1.0000    0.28176   0.38601   0.65273   Biso      1.000     Zn          0.765187  
         Zn5       1.0000    0.26672   0.11399   0.39575   Biso      1.000     Zn          0.765185  
         Zn6       1.0000    0.76672   0.37097   0.15273   Biso      1.000     Zn          0.765187  
         Zn7       1.0000    0.78176   0.12903   0.89575   Biso      1.000     Zn          0.765188  
         Zn8       1.0000    0.73328   0.88601   0.60425   Biso      1.000     Zn          0.765186 