
##########################################################################
#               Crystallographic Information Format file
#               Produced by PyCifRW module
#
#  This is a CIF file.  CIF has been adopted by the International
#  Union of Crystallography as the standard for data archiving and
#  transmission.
#
#  For information on this file format, follow the CIF links at
#  http://www.iucr.org
##########################################################################

data_image0

_cell_length_a                          17.1031
_cell_length_b                          17.1031
_cell_length_c                          17.1031
_cell_angle_alpha                       87.6667
_cell_angle_beta                        87.6667
_cell_angle_gamma                       87.6667
_symmetry_space_group_name_H-M          'P 1'
_symmetry_int_tables_number             1
loop_
  _symmetry_equiv_pos_as_xyz
         'x, y, z' 
loop_
  _atom_site_label
  _atom_site_occupancy
  _atom_site_fract_x
  _atom_site_fract_y
  _atom_site_fract_z
  _atom_site_thermal_displace_type
  _atom_site_B_iso_or_equiv
  _atom_site_type_symbol
  _atom_site_charge
         C1        1.0000    0.23250   0.50970   0.20310   Biso      1.000     C          -0.133164           
         C2        1.0000    0.84090   0.23940   0.14220   Biso      1.000     C          -0.25915  
         C3        1.0000    0.76010   0.23460   0.14050   Biso      1.000     C          0.216862  
         C4        1.0000    0.72350   0.17260   0.17820   Biso      1.000     C          -0.015225           
         C5        1.0000    0.76720   0.11760   0.22010   Biso      1.000     C          -0.127445           
         C6        1.0000    0.23140   0.59010   0.20720   Biso      1.000     C          -0.12722  
         C7        1.0000    0.84750   0.12220   0.22160   Biso      1.000     C          -0.127419           
         C8        1.0000    0.75670   0.35750   0.06480   Biso      1.000     C          -0.241047           
         C9        1.0000    0.17950   0.38760   0.15710   Biso      1.000     C          0.641788  
         C10       1.0000    0.17860   0.47510   0.16080   Biso      1.000     C          -0.019825           
         C11       1.0000    0.93520   0.24330   0.64250   Biso      1.000     C          -0.241047           
         C12       1.0000    0.77840   0.15250   0.87780   Biso      1.000     C          -0.127419           
         C13       1.0000    0.77990   0.23280   0.88240   Biso      1.000     C          -0.127447           
         C14       1.0000    0.82180   0.27650   0.82740   Biso      1.000     C          -0.015226           
         C15       1.0000    0.60120   0.12440   0.12280   Biso      1.000     C          0.20183   
         C16       1.0000    0.85780   0.15910   0.76060   Biso      1.000     C          -0.25915  
         C17       1.0000    0.81900   0.11520   0.81690   Biso      1.000     C          -0.008688           
         C18       1.0000    0.81950   0.02840   0.81080   Biso      1.000     C          0.615431  
         C19       1.0000    0.97400   0.38200   0.97200   Biso      1.000     C          -0.243562           
         C20       1.0000    0.76750   0.49030   0.79690   Biso      1.000     C          -0.133164           
         C21       1.0000    0.76860   0.40990   0.79280   Biso      1.000     C          -0.12722  
         C22       1.0000    0.82220   0.36370   0.83220   Biso      1.000     C          -0.002244           
         C23       1.0000    0.87720   0.39880   0.87560   Biso      1.000     C          0.20183   
         C24       1.0000    0.87660   0.47920   0.87890   Biso      1.000     C          -0.254666           
         C25       1.0000    0.82140   0.52490   0.83920   Biso      1.000     C          -0.019823           
         C26       1.0000    0.82050   0.61240   0.84290   Biso      1.000     C          0.641788  
         C27       1.0000    0.24330   0.64250   0.93520   Biso      1.000     C          -0.241047           
         C28       1.0000    0.15250   0.87780   0.77840   Biso      1.000     C          -0.127418           
         C29       1.0000    0.23280   0.88240   0.77990   Biso      1.000     C          -0.127447           
         C30       1.0000    0.27650   0.82740   0.82180   Biso      1.000     C          -0.015226           
         C31       1.0000    0.88480   0.18310   0.18100   Biso      1.000     C          -0.008688           
         C32       1.0000    0.23990   0.76540   0.85950   Biso      1.000     C          0.216863  
         C33       1.0000    0.97160   0.18920   0.18050   Biso      1.000     C          0.615431  
         C34       1.0000    0.50970   0.20310   0.23250   Biso      1.000     C          -0.133164           
         C35       1.0000    0.52080   0.12110   0.12340   Biso      1.000     C          -0.254666           
         C36       1.0000    0.47510   0.16080   0.17860   Biso      1.000     C          -0.019823           
         C37       1.0000    0.38760   0.15710   0.17950   Biso      1.000     C          0.641788  
         C38       1.0000    0.35750   0.06480   0.75670   Biso      1.000     C          -0.241047           
         C39       1.0000    0.12220   0.22160   0.84750   Biso      1.000     C          -0.127419           
         C40       1.0000    0.11760   0.22010   0.76720   Biso      1.000     C          -0.127447           
         C41       1.0000    0.17260   0.17820   0.72350   Biso      1.000     C          -0.015226           
         C42       1.0000    0.23460   0.14050   0.76010   Biso      1.000     C          0.216863  
         C43       1.0000    0.23940   0.14220   0.84090   Biso      1.000     C          -0.259149           
         C44       1.0000    0.18310   0.18100   0.88480   Biso      1.000     C          -0.008688           
         C45       1.0000    0.18920   0.18050   0.97160   Biso      1.000     C          0.615431  
         C46       1.0000    0.02800   0.02600   0.61800   Biso      1.000     C          -0.243561           
         C47       1.0000    0.20310   0.23250   0.50970   Biso      1.000     C          -0.133164           
         C48       1.0000    0.20720   0.23140   0.59010   Biso      1.000     C          -0.12722  
         C49       1.0000    0.16780   0.17780   0.63630   Biso      1.000     C          -0.002244           
         C50       1.0000    0.12440   0.12280   0.60120   Biso      1.000     C          0.20183   
         C51       1.0000    0.12110   0.12340   0.52080   Biso      1.000     C          -0.254666           
         C52       1.0000    0.16080   0.17860   0.47510   Biso      1.000     C          -0.019824           
         C53       1.0000    0.15710   0.17950   0.38760   Biso      1.000     C          0.641788  
         C54       1.0000    0.02600   0.61800   0.02800   Biso      1.000     C          -0.243562           
         C55       1.0000    0.18050   0.97160   0.18920   Biso      1.000     C          0.615432  
         C56       1.0000    0.18100   0.88480   0.18310   Biso      1.000     C          -0.008698           
         C57       1.0000    0.14220   0.84090   0.23940   Biso      1.000     C          -0.259141           
         C58       1.0000    0.14050   0.76010   0.23460   Biso      1.000     C          0.216862  
         C59       1.0000    0.17820   0.72350   0.17260   Biso      1.000     C          -0.015225           
         C60       1.0000    0.22010   0.76720   0.11760   Biso      1.000     C          -0.127445           
         C61       1.0000    0.22160   0.84750   0.12220   Biso      1.000     C          -0.127418           
         C62       1.0000    0.06480   0.75670   0.35750   Biso      1.000     C          -0.241047           
         C63       1.0000    0.59010   0.20720   0.23140   Biso      1.000     C          -0.12722  
         C64       1.0000    0.61800   0.02800   0.02600   Biso      1.000     C          -0.243561           
         C65       1.0000    0.15910   0.76060   0.85780   Biso      1.000     C          -0.259149           
         C66       1.0000    0.85950   0.23990   0.76540   Biso      1.000     C          0.216865  
         C67       1.0000    0.02840   0.81080   0.81950   Biso      1.000     C          0.615431  
         C68       1.0000    0.17780   0.63630   0.16780   Biso      1.000     C          -0.002244           
         C69       1.0000    0.12280   0.60120   0.12440   Biso      1.000     C          0.20183   
         C70       1.0000    0.12340   0.52080   0.12110   Biso      1.000     C          -0.254665           
         C71       1.0000    0.11520   0.81690   0.81900   Biso      1.000     C          -0.008689           
         C72       1.0000    0.84290   0.82050   0.61240   Biso      1.000     C          0.641789  
         C73       1.0000    0.83920   0.82140   0.52490   Biso      1.000     C          -0.019834           
         C74       1.0000    0.87890   0.87660   0.47920   Biso      1.000     C          -0.254664           
         C75       1.0000    0.87560   0.87720   0.39880   Biso      1.000     C          0.20183   
         C76       1.0000    0.83220   0.82220   0.36370   Biso      1.000     C          -0.002248           
         C77       1.0000    0.79280   0.76860   0.40990   Biso      1.000     C          -0.127217           
         C78       1.0000    0.79690   0.76750   0.49030   Biso      1.000     C          -0.133157           
         C79       1.0000    0.97200   0.97400   0.38200   Biso      1.000     C          -0.243561           
         C80       1.0000    0.81080   0.81950   0.02840   Biso      1.000     C          0.615432  
         C81       1.0000    0.81690   0.81900   0.11520   Biso      1.000     C          -0.008698           
         C82       1.0000    0.63630   0.16780   0.17780   Biso      1.000     C          -0.002244           
         C83       1.0000    0.76540   0.85950   0.23990   Biso      1.000     C          0.21686   
         C84       1.0000    0.36370   0.83220   0.82220   Biso      1.000     C          -0.002248           
         C85       1.0000    0.76060   0.85780   0.15910   Biso      1.000     C          -0.259139           
         C86       1.0000    0.40990   0.79280   0.76860   Biso      1.000     C          -0.127216           
         C87       1.0000    0.49030   0.79690   0.76750   Biso      1.000     C          -0.133165           
         C88       1.0000    0.39880   0.87560   0.87720   Biso      1.000     C          0.20183   
         C89       1.0000    0.47920   0.87890   0.87660   Biso      1.000     C          -0.254666           
         C90       1.0000    0.38200   0.97200   0.97400   Biso      1.000     C          -0.243561           
         C91       1.0000    0.61240   0.84290   0.82050   Biso      1.000     C          0.641788  
         C92       1.0000    0.64250   0.93520   0.24330   Biso      1.000     C          -0.241047           
         C93       1.0000    0.87780   0.77840   0.15250   Biso      1.000     C          -0.127417           
         C94       1.0000    0.88240   0.77990   0.23280   Biso      1.000     C          -0.127447           
         C95       1.0000    0.82740   0.82180   0.27650   Biso      1.000     C          -0.015223           
         C96       1.0000    0.52490   0.83920   0.82140   Biso      1.000     C          -0.019823           
         H1        1.0000    0.05990   0.60300   0.98390   Biso      1.000     H          0.122743  
         H2        1.0000    0.25050   0.87740   0.08380   Biso      1.000     H          0.11743   
         H3        1.0000    0.24840   0.74190   0.07620   Biso      1.000     H          0.118978  
         H4        1.0000    0.11590   0.86580   0.28220   Biso      1.000     H          0.12532   
         H5        1.0000    0.99930   0.57230   0.05090   Biso      1.000     H          0.122071  
         H6        1.0000    0.79830   0.33970   0.02780   Biso      1.000     H          0.123509  
         H7        1.0000    0.27100   0.47840   0.22980   Biso      1.000     H          0.114839  
         H8        1.0000    0.26830   0.61370   0.23790   Biso      1.000     H          0.119049  
         H9        1.0000    0.08600   0.49670   0.09140   Biso      1.000     H          0.125272  
         H10       1.0000    0.77960   0.38700   0.10570   Biso      1.000     H          0.125746  
         H11       1.0000    0.03700   0.71860   0.39130   Biso      1.000     H          0.14907   
         H12       1.0000    0.71860   0.39130   0.03700   Biso      1.000     H          0.149069  
         H13       1.0000    0.98570   0.65720   0.00990   Biso      1.000     H          0.148028  
         H14       1.0000    0.02780   0.79830   0.33970   Biso      1.000     H          0.123509  
         H15       1.0000    0.61300   0.89430   0.22040   Biso      1.000     H          0.125746  
         H16       1.0000    0.34280   0.99010   0.01430   Biso      1.000     H          0.148028  
         H17       1.0000    0.90860   0.91400   0.50330   Biso      1.000     H          0.125272  
         H18       1.0000    0.76210   0.73170   0.38630   Biso      1.000     H          0.119049  
         H19       1.0000    0.77020   0.72900   0.52160   Biso      1.000     H          0.114839  
         H20       1.0000    0.99010   0.01430   0.34280   Biso      1.000     H          0.148028  
         H21       1.0000    0.94910   0.00070   0.42770   Biso      1.000     H          0.122071  
         H22       1.0000    0.01610   0.94010   0.39700   Biso      1.000     H          0.122743  
         H23       1.0000    0.71780   0.88410   0.13420   Biso      1.000     H          0.12532   
         H24       1.0000    0.92380   0.75160   0.25810   Biso      1.000     H          0.118978  
         H25       1.0000    0.91620   0.74950   0.12260   Biso      1.000     H          0.11743   
         H26       1.0000    0.60870   0.96300   0.28140   Biso      1.000     H          0.14907   
         H27       1.0000    0.66030   0.97220   0.20170   Biso      1.000     H          0.123509  
         H28       1.0000    0.87740   0.08380   0.25050   Biso      1.000     H          0.11743   
         H29       1.0000    0.50330   0.90860   0.91400   Biso      1.000     H          0.125272  
         H30       1.0000    0.38630   0.76210   0.73170   Biso      1.000     H          0.119049  
         H31       1.0000    0.52160   0.77020   0.72900   Biso      1.000     H          0.114839  
         H32       1.0000    0.10570   0.77960   0.38700   Biso      1.000     H          0.125746  
         H33       1.0000    0.74190   0.07620   0.24840   Biso      1.000     H          0.118978  
         H34       1.0000    0.61370   0.23790   0.26830   Biso      1.000     H          0.119049  
         H35       1.0000    0.60300   0.98390   0.05990   Biso      1.000     H          0.122743  
         H36       1.0000    0.28140   0.60870   0.96300   Biso      1.000     H          0.14907   
         H37       1.0000    0.20170   0.66030   0.97220   Biso      1.000     H          0.123509  
         H38       1.0000    0.22040   0.61300   0.89430   Biso      1.000     H          0.125746  
         H39       1.0000    0.91400   0.50330   0.90860   Biso      1.000     H          0.125272  
         H40       1.0000    0.73170   0.38630   0.76210   Biso      1.000     H          0.119049  
         H41       1.0000    0.72900   0.52160   0.77020   Biso      1.000     H          0.114839  
         H42       1.0000    0.01430   0.34280   0.99010   Biso      1.000     H          0.148028  
         H43       1.0000    0.00070   0.42770   0.94910   Biso      1.000     H          0.122071  
         H44       1.0000    0.94010   0.39700   0.01610   Biso      1.000     H          0.122743  
         H45       1.0000    0.88410   0.13420   0.71780   Biso      1.000     H          0.125321  
         H46       1.0000    0.75160   0.25810   0.92380   Biso      1.000     H          0.118978  
         H47       1.0000    0.74950   0.12260   0.91620   Biso      1.000     H          0.11743   
         H48       1.0000    0.96300   0.28140   0.60870   Biso      1.000     H          0.14907   
         H49       1.0000    0.97220   0.20170   0.66030   Biso      1.000     H          0.12351   
         H50       1.0000    0.89430   0.22040   0.61300   Biso      1.000     H          0.125746  
         H51       1.0000    0.12260   0.91620   0.74950   Biso      1.000     H          0.11743   
         H52       1.0000    0.25810   0.92380   0.75160   Biso      1.000     H          0.118978  
         H53       1.0000    0.13420   0.71780   0.88410   Biso      1.000     H          0.125321  
         H54       1.0000    0.39700   0.01610   0.94010   Biso      1.000     H          0.122743  
         H55       1.0000    0.57230   0.05090   0.99930   Biso      1.000     H          0.122071  
         H56       1.0000    0.65720   0.00990   0.98570   Biso      1.000     H          0.148028  
         H57       1.0000    0.47840   0.22980   0.27100   Biso      1.000     H          0.114839  
         H58       1.0000    0.49670   0.09140   0.08600   Biso      1.000     H          0.125272  
         H59       1.0000    0.38700   0.10570   0.77960   Biso      1.000     H          0.125746  
         H60       1.0000    0.33970   0.02780   0.79830   Biso      1.000     H          0.123509  
         H61       1.0000    0.39130   0.03700   0.71860   Biso      1.000     H          0.14907   
         H62       1.0000    0.86580   0.28220   0.11590   Biso      1.000     H          0.125321  
         H63       1.0000    0.08380   0.25050   0.87740   Biso      1.000     H          0.11743   
         H64       1.0000    0.28220   0.11590   0.86580   Biso      1.000     H          0.125321  
         H65       1.0000    0.05090   0.99930   0.57230   Biso      1.000     H          0.122071  
         H66       1.0000    0.00990   0.98570   0.65720   Biso      1.000     H          0.148028  
         H67       1.0000    0.22980   0.27100   0.47840   Biso      1.000     H          0.114839  
         H68       1.0000    0.23790   0.26830   0.61370   Biso      1.000     H          0.119049  
         H69       1.0000    0.09140   0.08600   0.49670   Biso      1.000     H          0.125272  
         H70       1.0000    0.42770   0.94910   0.00070   Biso      1.000     H          0.122071  
         H71       1.0000    0.07620   0.24840   0.74190   Biso      1.000     H          0.118978  
         H72       1.0000    0.98390   0.05990   0.60300   Biso      1.000     H          0.122743  
         O1        1.0000    0.81810   0.81810   0.81810   Biso      1.000     O          -1.032903           
         O2        1.0000    0.11900   0.12810   0.35890   Biso      1.000     O          -0.54133  
         O3        1.0000    0.23320   0.00360   0.14890   Biso      1.000     O          -0.549409           
         O4        1.0000    0.13140   0.00530   0.23490   Biso      1.000     O          -0.547654           
         O5        1.0000    0.07100   0.65200   0.08700   Biso      1.000     O          -0.166572           
         O6        1.0000    0.12810   0.35890   0.11900   Biso      1.000     O          -0.54133  
         O7        1.0000    0.23070   0.34790   0.18940   Biso      1.000     O          -0.593494           
         O8        1.0000    0.71780   0.28970   0.10070   Biso      1.000     O          -0.175626           
         O9        1.0000    0.18940   0.23070   0.34790   Biso      1.000     O          -0.593493           
         O10       1.0000    0.00360   0.14890   0.23320   Biso      1.000     O          -0.54941  
         O11       1.0000    0.35890   0.11900   0.12810   Biso      1.000     O          -0.54133  
         O12       1.0000    0.34790   0.18940   0.23070   Biso      1.000     O          -0.593493           
         O13       1.0000    0.28970   0.10070   0.71780   Biso      1.000     O          -0.175626           
         O14       1.0000    0.14890   0.23320   0.00360   Biso      1.000     O          -0.549409           
         O15       1.0000    0.23490   0.13140   0.00530   Biso      1.000     O          -0.547654           
         O16       1.0000    0.08700   0.07100   0.65200   Biso      1.000     O          -0.166572           
         O17       1.0000    0.65200   0.08700   0.07100   Biso      1.000     O          -0.166572           
         O18       1.0000    0.00530   0.23490   0.13140   Biso      1.000     O          -0.547654           
         O19       1.0000    0.18190   0.18190   0.18190   Biso      1.000     O          -1.032903           
         O20       1.0000    0.34800   0.91300   0.92900   Biso      1.000     O          -0.166572           
         O21       1.0000    0.91300   0.92900   0.34800   Biso      1.000     O          -0.166572           
         O22       1.0000    0.76510   0.86860   0.99470   Biso      1.000     O          -0.547655           
         O23       1.0000    0.85110   0.76680   0.99640   Biso      1.000     O          -0.549409           
         O24       1.0000    0.71030   0.89930   0.28220   Biso      1.000     O          -0.175626           
         O25       1.0000    0.65210   0.81060   0.76930   Biso      1.000     O          -0.593493           
         O26       1.0000    0.64110   0.88100   0.87190   Biso      1.000     O          -0.54133  
         O27       1.0000    0.99470   0.76510   0.86860   Biso      1.000     O          -0.547654           
         O28       1.0000    0.99640   0.85110   0.76680   Biso      1.000     O          -0.54941  
         O29       1.0000    0.88100   0.87190   0.64110   Biso      1.000     O          -0.54133  
         O30       1.0000    0.28220   0.71030   0.89930   Biso      1.000     O          -0.175626           
         O31       1.0000    0.87190   0.64110   0.88100   Biso      1.000     O          -0.54133  
         O32       1.0000    0.92900   0.34800   0.91300   Biso      1.000     O          -0.166572           
         O33       1.0000    0.86860   0.99470   0.76510   Biso      1.000     O          -0.547654           
         O34       1.0000    0.76680   0.99640   0.85110   Biso      1.000     O          -0.54941  
         O35       1.0000    0.89930   0.28220   0.71030   Biso      1.000     O          -0.175626           
         O36       1.0000    0.10070   0.71780   0.28970   Biso      1.000     O          -0.175626           
         O37       1.0000    0.76930   0.65210   0.81060   Biso      1.000     O          -0.593493           
         O38       1.0000    0.81060   0.76930   0.65210   Biso      1.000     O          -0.593493           
         Zn1       1.0000    0.75347   0.75347   0.75347   Biso      1.000     Zn          1.068136  
         Zn2       1.0000    0.88428   0.75374   0.88425   Biso      1.000     Zn          0.934028  
         Zn3       1.0000    0.75374   0.88425   0.88428   Biso      1.000     Zn          0.934027  
         Zn4       1.0000    0.11572   0.24626   0.11575   Biso      1.000     Zn          0.934028  
         Zn5       1.0000    0.11575   0.11572   0.24626   Biso      1.000     Zn          0.934028  
         Zn6       1.0000    0.24626   0.11575   0.11572   Biso      1.000     Zn          0.934028  
         Zn7       1.0000    0.24653   0.24653   0.24653   Biso      1.000     Zn          1.068136  
         Zn8       1.0000    0.88425   0.88428   0.75374   Biso      1.000     Zn          0.934028 