
##########################################################################
#               Crystallographic Information Format file
#               Produced by PyCifRW module
#
#  This is a CIF file.  CIF has been adopted by the International
#  Union of Crystallography as the standard for data archiving and
#  transmission.
#
#  For information on this file format, follow the CIF links at
#  http://www.iucr.org
##########################################################################

data_image0

_cell_length_a                          9.103
_cell_length_b                          15.4537
_cell_length_c                          15.4537
_cell_angle_alpha                       63.7576
_cell_angle_beta                        78.6764
_cell_angle_gamma                       101.324
_symmetry_space_group_name_H-M          'P 1'
_symmetry_int_tables_number             1
loop_
  _symmetry_equiv_pos_as_xyz
         'x, y, z' 
loop_
  _atom_site_label
  _atom_site_occupancy
  _atom_site_fract_x
  _atom_site_fract_y
  _atom_site_fract_z
  _atom_site_thermal_displace_type
  _atom_site_B_iso_or_equiv
  _atom_site_type_symbol
  _atom_site_charge
         Ag1       1.0000    0.30437   0.30437   0.39126   Biso      1.000     Ag          0.156635  
         Ag2       1.0000    0.30437   0.60874   0.69563   Biso      1.000     Ag          0.156627  
         Ag3       1.0000    0.00000   0.69563   0.69563   Biso      1.000     Ag          0.156326  
         Ag4       1.0000    0.69563   0.69563   0.60874   Biso      1.000     Ag          0.156634  
         Ag5       1.0000    0.69563   0.39126   0.30437   Biso      1.000     Ag          0.156626  
         Ag6       1.0000    0.00000   0.30437   0.30437   Biso      1.000     Ag          0.156326  
         C1        1.0000    0.88700   0.27800   0.63440   Biso      1.000     C          0.08251   
         C2        1.0000    0.18780   0.82320   0.59080   Biso      1.000     C          -0.051493           
         C3        1.0000    0.64280   0.09180   0.18560   Biso      1.000     C          -0.157882           
         C4        1.0000    0.60900   0.08760   0.27800   Biso      1.000     C          0.081349  
         C5        1.0000    0.44900   0.27740   0.90820   Biso      1.000     C          -0.157495           
         C6        1.0000    0.55100   0.72260   0.09180   Biso      1.000     C          -0.157495           
         C7        1.0000    0.82840   0.18560   0.72260   Biso      1.000     C          -0.15806900000000002          
         C8        1.0000    0.52140   0.63440   0.08760   Biso      1.000     C          0.080927  
         C9        1.0000    0.35720   0.90820   0.81440   Biso      1.000     C          -0.157882           
         C10       1.0000    0.36460   0.58600   0.82320   Biso      1.000     C          -0.053834           
         C11       1.0000    0.77860   0.59080   0.58600   Biso      1.000     C          -0.051737           
         C12       1.0000    0.81220   0.59080   0.82320   Biso      1.000     C          -0.051489           
         C13       1.0000    0.35720   0.18560   0.09180   Biso      1.000     C          -0.157889           
         C14       1.0000    0.81220   0.17680   0.40920   Biso      1.000     C          -0.051493           
         C15       1.0000    0.11300   0.63440   0.27800   Biso      1.000     C          0.082508  
         C16       1.0000    0.17160   0.72260   0.18560   Biso      1.000     C          -0.158049           
         C17       1.0000    0.22140   0.58600   0.59080   Biso      1.000     C          -0.051739           
         C18       1.0000    0.47860   0.08760   0.63440   Biso      1.000     C          0.08091   
         C19       1.0000    0.44900   0.09180   0.72260   Biso      1.000     C          -0.157469           
         C20       1.0000    0.63540   0.82320   0.58600   Biso      1.000     C          -0.053828999999999995         
         C21       1.0000    0.47860   0.36560   0.91240   Biso      1.000     C          0.080927  
         C22       1.0000    0.39100   0.27800   0.08760   Biso      1.000     C          0.081343  
         C23       1.0000    0.11300   0.72200   0.36560   Biso      1.000     C          0.08251   
         C24       1.0000    0.64280   0.81440   0.90820   Biso      1.000     C          -0.157889           
         C25       1.0000    0.22140   0.40920   0.41400   Biso      1.000     C          -0.051738           
         C26       1.0000    0.34890   0.00000   0.91430   Biso      1.000     C          0.374133  
         C27       1.0000    0.38500   0.00000   0.81800   Biso      1.000     C          0.037665  
         C28       1.0000    0.26320   0.91430   0.08570   Biso      1.000     C          0.37604299999999996           
         C29       1.0000    0.20300   0.81800   0.18200   Biso      1.000     C          0.038393000000000004          
         C30       1.0000    0.34890   0.08570   0.00000   Biso      1.000     C          0.374147  
         C31       1.0000    0.38500   0.18200   0.00000   Biso      1.000     C          0.037676  
         C32       1.0000    0.73680   0.08570   0.91430   Biso      1.000     C          0.37604299999999996           
         C33       1.0000    0.79700   0.18200   0.81800   Biso      1.000     C          0.038393000000000004          
         C34       1.0000    0.65110   0.00000   0.08570   Biso      1.000     C          0.374134  
         C35       1.0000    0.61500   0.00000   0.18200   Biso      1.000     C          0.037666000000000005          
         C36       1.0000    0.65110   0.91430   0.00000   Biso      1.000     C          0.374147  
         C37       1.0000    0.61500   0.81800   0.00000   Biso      1.000     C          0.037676  
         C38       1.0000    0.36460   0.17680   0.41400   Biso      1.000     C          -0.053828999999999995         
         C39       1.0000    0.55100   0.90820   0.27740   Biso      1.000     C          -0.157476           
         C40       1.0000    0.52140   0.91240   0.36560   Biso      1.000     C          0.080917  
         C41       1.0000    0.77860   0.41400   0.40920   Biso      1.000     C          -0.051738           
         C42       1.0000    0.82840   0.27740   0.81440   Biso      1.000     C          -0.158056           
         C43       1.0000    0.88700   0.36560   0.72200   Biso      1.000     C          0.08251599999999999           
         C44       1.0000    0.18780   0.40920   0.17680   Biso      1.000     C          -0.051489           
         C45       1.0000    0.39100   0.91240   0.72200   Biso      1.000     C          0.081349  
         C46       1.0000    0.60900   0.72200   0.91240   Biso      1.000     C          0.081343  
         C47       1.0000    0.17160   0.81440   0.27740   Biso      1.000     C          -0.15806800000000001          
         C48       1.0000    0.63540   0.41400   0.17680   Biso      1.000     C          -0.053834           
         Fe1       1.0000    0.50000   0.50000   0.00000   Biso      1.000     Fe          0.526737  
         Fe2       1.0000    0.00000   0.50000   0.50000   Biso      1.000     Fe          0.5266529999999999  
         Fe3       1.0000    0.50000   0.00000   0.50000   Biso      1.000     Fe          0.526734  
         H1        1.0000    0.47730   0.57270   0.14860   Biso      1.000     H          0.10222300000000001           
         H2        1.0000    0.52960   0.72010   0.15440   Biso      1.000     H          0.133771  
         H3        1.0000    0.62590   0.14860   0.27870   Biso      1.000     H          0.10205399999999999           
         H4        1.0000    0.68400   0.15440   0.12550   Biso      1.000     H          0.13381700000000002           
         H5        1.0000    0.90460   0.27870   0.57270   Biso      1.000     H          0.101339  
         H6        1.0000    0.80950   0.12550   0.72010   Biso      1.000     H          0.133605  
         H7        1.0000    0.37410   0.27870   0.14860   Biso      1.000     H          0.10206799999999999           
         H8        1.0000    0.31600   0.12550   0.15440   Biso      1.000     H          0.13383399999999998           
         H9        1.0000    0.09540   0.57270   0.27870   Biso      1.000     H          0.101341  
         H10       1.0000    0.19050   0.72010   0.12550   Biso      1.000     H          0.13359200000000002           
         H11       1.0000    0.52270   0.14860   0.57270   Biso      1.000     H          0.10222   
         H12       1.0000    0.52960   0.84560   0.27990   Biso      1.000     H          0.133761  
         H13       1.0000    0.52270   0.42730   0.85140   Biso      1.000     H          0.10222300000000001           
         H14       1.0000    0.47040   0.15440   0.72010   Biso      1.000     H          0.13376   
         H15       1.0000    0.80950   0.27990   0.87450   Biso      1.000     H          0.13359300000000002           
         H16       1.0000    0.90460   0.42730   0.72130   Biso      1.000     H          0.101341  
         H17       1.0000    0.68400   0.87450   0.84560   Biso      1.000     H          0.13383399999999998           
         H18       1.0000    0.62590   0.72130   0.85140   Biso      1.000     H          0.10206799999999999           
         H19       1.0000    0.47730   0.85140   0.42730   Biso      1.000     H          0.102219  
         H20       1.0000    0.09540   0.72130   0.42730   Biso      1.000     H          0.101338  
         H21       1.0000    0.31600   0.84560   0.87450   Biso      1.000     H          0.13381700000000002           
         H22       1.0000    0.37410   0.85140   0.72130   Biso      1.000     H          0.10205399999999999           
         H23       1.0000    0.47040   0.27990   0.84560   Biso      1.000     H          0.133771  
         H24       1.0000    0.19050   0.87450   0.27990   Biso      1.000     H          0.133604  
         N1        1.0000    0.38410   0.08965   0.91035   Biso      1.000     N          -0.409427           
         N2        1.0000    0.55270   0.63200   0.00000   Biso      1.000     N          -0.115747           
         N3        1.0000    0.70555   0.08965   0.00000   Biso      1.000     N          -0.410844           
         N4        1.0000    0.61590   0.91035   0.08965   Biso      1.000     N          -0.409427           
         N5        1.0000    0.70555   0.00000   0.91035   Biso      1.000     N          -0.41086300000000003          
         N6        1.0000    0.44730   0.00000   0.63200   Biso      1.000     N          -0.115746           
         N7        1.0000    0.07930   0.63200   0.36800   Biso      1.000     N          -0.11646600000000001          
         N8        1.0000    0.44730   0.36800   0.00000   Biso      1.000     N          -0.115747           
         N9        1.0000    0.92070   0.36800   0.63200   Biso      1.000     N          -0.116467           
         N10       1.0000    0.55270   0.00000   0.36800   Biso      1.000     N          -0.115747           
         N11       1.0000    0.40660   0.10680   0.44390   Biso      1.000     N          -0.258754           
         N12       1.0000    0.59340   0.89320   0.55610   Biso      1.000     N          -0.258754           
         N13       1.0000    0.29980   0.44930   0.10680   Biso      1.000     N          -0.261336           
         N14       1.0000    0.14950   0.44930   0.44390   Biso      1.000     N          -0.260316           
         N15       1.0000    0.70020   0.10680   0.44930   Biso      1.000     N          -0.261336           
         N16       1.0000    0.59340   0.44390   0.10680   Biso      1.000     N          -0.258746           
         N17       1.0000    0.14950   0.55610   0.55070   Biso      1.000     N          -0.260322           
         N18       1.0000    0.70020   0.55070   0.89320   Biso      1.000     N          -0.261336           
         N19       1.0000    0.85050   0.55070   0.55610   Biso      1.000     N          -0.260316           
         N20       1.0000    0.29980   0.89320   0.55070   Biso      1.000     N          -0.261336           
         N21       1.0000    0.40660   0.55610   0.89320   Biso      1.000     N          -0.258746           
         N22       1.0000    0.29445   0.00000   0.08965   Biso      1.000     N          -0.41086300000000003          
         N23       1.0000    0.85050   0.44390   0.44930   Biso      1.000     N          -0.260322           
         N24       1.0000    0.29445   0.91035   0.00000   Biso      1.000     N          -0.410844 