
##########################################################################
#               Crystallographic Information Format file
#               Produced by PyCifRW module
#
#  This is a CIF file.  CIF has been adopted by the International
#  Union of Crystallography as the standard for data archiving and
#  transmission.
#
#  For information on this file format, follow the CIF links at
#  http://www.iucr.org
##########################################################################

data_image0

_cell_length_a                          9.7512
_cell_length_b                          15.8547
_cell_length_c                          15.8547
_cell_angle_alpha                       64.0902
_cell_angle_beta                        78.1698
_cell_angle_gamma                       101.83
_symmetry_space_group_name_H-M          'P 1'
_symmetry_int_tables_number             1
loop_
  _symmetry_equiv_pos_as_xyz
         'x, y, z' 
loop_
  _atom_site_label
  _atom_site_occupancy
  _atom_site_fract_x
  _atom_site_fract_y
  _atom_site_fract_z
  _atom_site_thermal_displace_type
  _atom_site_B_iso_or_equiv
  _atom_site_type_symbol
  _atom_site_charge
         Au1       1.0000    0.20784   0.41568   0.29216   Biso      1.000     Au          -0.003722           
         Au2       1.0000    0.79216   0.29216   0.41568   Biso      1.000     Au          -0.003758           
         Au3       1.0000    0.79216   0.58432   0.70784   Biso      1.000     Au          -0.003722           
         Au4       1.0000    0.50000   0.70784   0.70784   Biso      1.000     Au          -0.004798           
         Au5       1.0000    0.20784   0.70784   0.58432   Biso      1.000     Au          -0.003758           
         Au6       1.0000    0.50000   0.29216   0.29216   Biso      1.000     Au          -0.004799           
         C1        1.0000    0.01530   0.64390   0.08460   Biso      1.000     C          0.093459  
         C2        1.0000    0.04480   0.73060   0.08820   Biso      1.000     C          -0.160878           
         C3        1.0000    0.13300   0.42420   0.18260   Biso      1.000     C          0.061555  
         C4        1.0000    0.09990   0.08460   0.27150   Biso      1.000     C          0.091697  
         C5        1.0000    0.13300   0.08820   0.18120   Biso      1.000     C          -0.160187           
         C6        1.0000    0.31560   0.18260   0.39320   Biso      1.000     C          0.063691  
         C7        1.0000    0.37140   0.27150   0.64390   Biso      1.000     C          0.090568  
         C8        1.0000    0.95520   0.26940   0.91180   Biso      1.000     C          -0.160878           
         C9        1.0000    0.90010   0.27150   0.08460   Biso      1.000     C          0.091668  
         C10       1.0000    0.86700   0.18120   0.08820   Biso      1.000     C          -0.160199           
         C11       1.0000    0.68440   0.39320   0.18260   Biso      1.000     C          0.063659  
         C12       1.0000    0.62860   0.64390   0.27150   Biso      1.000     C          0.090569  
         C13       1.0000    0.68580   0.73060   0.18120   Biso      1.000     C          -0.158381           
         C14       1.0000    0.29120   0.42420   0.39320   Biso      1.000     C          0.06319   
         C15       1.0000    0.98470   0.08460   0.64390   Biso      1.000     C          0.093493  
         C16       1.0000    0.95520   0.08820   0.73060   Biso      1.000     C          -0.160876           
         C17       1.0000    0.86700   0.18260   0.42420   Biso      1.000     C          0.061588  
         C18       1.0000    0.98470   0.35610   0.91540   Biso      1.000     C          0.09346   
         C19       1.0000    0.70880   0.39320   0.42420   Biso      1.000     C          0.06319   
         C20       1.0000    0.31420   0.18120   0.73060   Biso      1.000     C          -0.158376           
         C21       1.0000    0.86700   0.91180   0.81880   Biso      1.000     C          -0.160186           
         C22       1.0000    0.68440   0.81740   0.60680   Biso      1.000     C          0.063691  
         C23       1.0000    0.86005   0.00000   0.91675   Biso      1.000     C          0.370106  
         C24       1.0000    0.89415   0.00000   0.82015   Biso      1.000     C          0.048522  
         C25       1.0000    0.77680   0.91675   0.08325   Biso      1.000     C          0.368996  
         C26       1.0000    0.71430   0.82015   0.17985   Biso      1.000     C          0.046842  
         C27       1.0000    0.86005   0.08325   0.00000   Biso      1.000     C          0.37008   
         C28       1.0000    0.89415   0.17985   0.00000   Biso      1.000     C          0.048501  
         C29       1.0000    0.22320   0.08325   0.91675   Biso      1.000     C          0.368996  
         C30       1.0000    0.28570   0.17985   0.82015   Biso      1.000     C          0.046842  
         C31       1.0000    0.13995   0.00000   0.08325   Biso      1.000     C          0.370107  
         C32       1.0000    0.10585   0.00000   0.17985   Biso      1.000     C          0.048522  
         C33       1.0000    0.13995   0.91675   0.00000   Biso      1.000     C          0.37008   
         C34       1.0000    0.90010   0.91540   0.72850   Biso      1.000     C          0.091697  
         C35       1.0000    0.10585   0.82015   0.00000   Biso      1.000     C          0.048501  
         C36       1.0000    0.04480   0.91180   0.26940   Biso      1.000     C          -0.160877           
         C37       1.0000    0.01530   0.91540   0.35610   Biso      1.000     C          0.093493  
         C38       1.0000    0.70880   0.57580   0.60680   Biso      1.000     C          0.06319   
         C39       1.0000    0.31420   0.26940   0.81880   Biso      1.000     C          -0.158381           
         C40       1.0000    0.37140   0.35610   0.72850   Biso      1.000     C          0.090569  
         C41       1.0000    0.31560   0.60680   0.81740   Biso      1.000     C          0.063659  
         C42       1.0000    0.13300   0.81880   0.91180   Biso      1.000     C          -0.160199           
         C43       1.0000    0.09990   0.72850   0.91540   Biso      1.000     C          0.091669  
         C44       1.0000    0.29120   0.60680   0.57580   Biso      1.000     C          0.06319   
         C45       1.0000    0.68580   0.81880   0.26940   Biso      1.000     C          -0.158376           
         C46       1.0000    0.62860   0.72850   0.35610   Biso      1.000     C          0.090568  
         C47       1.0000    0.13300   0.81740   0.57580   Biso      1.000     C          0.061588  
         C48       1.0000    0.86700   0.57580   0.81740   Biso      1.000     C          0.061555  
         Fe1       1.0000    0.00000   0.50000   0.00000   Biso      1.000     Fe          0.47331   
         Fe2       1.0000    0.50000   0.50000   0.50000   Biso      1.000     Fe          0.474471  
         Fe3       1.0000    0.00000   0.00000   0.50000   Biso      1.000     Fe          0.474117  
         H1        1.0000    0.97600   0.58380   0.14420   Biso      1.000     H          0.104538  
         H2        1.0000    0.02420   0.72890   0.14890   Biso      1.000     H          0.133367  
         H3        1.0000    0.12020   0.14420   0.27200   Biso      1.000     H          0.105282  
         H4        1.0000    0.17310   0.14890   0.12220   Biso      1.000     H          0.133374  
         H5        1.0000    0.39220   0.27200   0.58380   Biso      1.000     H          0.105142  
         H6        1.0000    0.29530   0.12220   0.72890   Biso      1.000     H          0.132676  
         H7        1.0000    0.87980   0.27200   0.14420   Biso      1.000     H          0.105274  
         H8        1.0000    0.82690   0.12220   0.14890   Biso      1.000     H          0.133361  
         H9        1.0000    0.60780   0.58380   0.27200   Biso      1.000     H          0.105145  
         H10       1.0000    0.70470   0.72890   0.12220   Biso      1.000     H          0.13268   
         H11       1.0000    0.02400   0.14420   0.58380   Biso      1.000     H          0.104541  
         H12       1.0000    0.02420   0.85110   0.27110   Biso      1.000     H          0.13338   
         H13       1.0000    0.02400   0.41620   0.85580   Biso      1.000     H          0.104538  
         H14       1.0000    0.97580   0.14890   0.72890   Biso      1.000     H          0.13338   
         H15       1.0000    0.29530   0.27110   0.87780   Biso      1.000     H          0.13268   
         H16       1.0000    0.39220   0.41620   0.72800   Biso      1.000     H          0.105145  
         H17       1.0000    0.17310   0.87780   0.85110   Biso      1.000     H          0.133361  
         H18       1.0000    0.12020   0.72800   0.85580   Biso      1.000     H          0.105274  
         H19       1.0000    0.97600   0.85580   0.41620   Biso      1.000     H          0.104541  
         H20       1.0000    0.60780   0.72800   0.41620   Biso      1.000     H          0.105142  
         H21       1.0000    0.82690   0.85110   0.87780   Biso      1.000     H          0.133374  
         H22       1.0000    0.87980   0.85580   0.72800   Biso      1.000     H          0.105282  
         H23       1.0000    0.97580   0.27110   0.85110   Biso      1.000     H          0.133367  
         H24       1.0000    0.70470   0.87780   0.27110   Biso      1.000     H          0.132676  
         N1        1.0000    0.80350   0.00000   0.08790   Biso      1.000     N          -0.400703           
         N2        1.0000    0.04020   0.64180   0.00000   Biso      1.000     N          -0.127119           
         N3        1.0000    0.19650   0.00000   0.91210   Biso      1.000     N          -0.400703           
         N4        1.0000    0.19650   0.08790   0.00000   Biso      1.000     N          -0.400711           
         N5        1.0000    0.10860   0.91210   0.08790   Biso      1.000     N          -0.401739           
         N6        1.0000    0.95980   0.00000   0.64180   Biso      1.000     N          -0.127204           
         N7        1.0000    0.60160   0.64180   0.35820   Biso      1.000     N          -0.12461  
         N8        1.0000    0.95980   0.35820   0.00000   Biso      1.000     N          -0.127119           
         N9        1.0000    0.39840   0.35820   0.64180   Biso      1.000     N          -0.12461  
         N10       1.0000    0.04020   0.00000   0.35820   Biso      1.000     N          -0.127204           
         N11       1.0000    0.09060   0.88250   0.55810   Biso      1.000     N          -0.293333           
         N12       1.0000    0.90940   0.11750   0.44190   Biso      1.000     N          -0.293333           
         N13       1.0000    0.20810   0.55940   0.88250   Biso      1.000     N          -0.295202           
         N14       1.0000    0.35130   0.55940   0.55810   Biso      1.000     N          -0.295421           
         N15       1.0000    0.79190   0.88250   0.55940   Biso      1.000     N          -0.295398           
         N16       1.0000    0.90940   0.55810   0.88250   Biso      1.000     N          -0.29308  
         N17       1.0000    0.35130   0.44190   0.44060   Biso      1.000     N          -0.295388           
         N18       1.0000    0.79190   0.44060   0.11750   Biso      1.000     N          -0.295203           
         N19       1.0000    0.64870   0.44060   0.44190   Biso      1.000     N          -0.295421           
         N20       1.0000    0.20810   0.11750   0.44060   Biso      1.000     N          -0.295399           
         N21       1.0000    0.09060   0.44190   0.11750   Biso      1.000     N          -0.29308  
         N22       1.0000    0.80350   0.91210   0.00000   Biso      1.000     N          -0.400711           
         N23       1.0000    0.64870   0.55810   0.55940   Biso      1.000     N          -0.295388           
         N24       1.0000    0.89140   0.08790   0.91210   Biso      1.000     N          -0.401738 