
##########################################################################
#               Crystallographic Information Format file
#               Produced by PyCifRW module
#
#  This is a CIF file.  CIF has been adopted by the International
#  Union of Crystallography as the standard for data archiving and
#  transmission.
#
#  For information on this file format, follow the CIF links at
#  http://www.iucr.org
##########################################################################

data_image0

_cell_length_a                          9.9696
_cell_length_b                          15.7389
_cell_length_c                          15.7389
_cell_angle_alpha                       64.3339
_cell_angle_beta                        77.8105
_cell_angle_gamma                       102.19
_symmetry_space_group_name_H-M          'P 1'
_symmetry_int_tables_number             1
loop_
  _symmetry_equiv_pos_as_xyz
         'x, y, z' 
loop_
  _atom_site_label
  _atom_site_occupancy
  _atom_site_fract_x
  _atom_site_fract_y
  _atom_site_fract_z
  _atom_site_thermal_displace_type
  _atom_site_B_iso_or_equiv
  _atom_site_type_symbol
  _atom_site_charge
         Ag1       1.0000    0.00000   0.29662   0.29662   Biso      1.000     Ag          0.166069  
         Ag2       1.0000    0.70338   0.70338   0.59324   Biso      1.000     Ag          0.166659  
         Ag3       1.0000    0.29662   0.59324   0.70338   Biso      1.000     Ag          0.16667300000000002           
         Ag4       1.0000    0.00000   0.70338   0.70338   Biso      1.000     Ag          0.16607   
         Ag5       1.0000    0.29662   0.29662   0.40676   Biso      1.000     Ag          0.16666   
         Ag6       1.0000    0.70338   0.40676   0.29662   Biso      1.000     Ag          0.16667300000000002           
         C1        1.0000    0.59700   0.72710   0.91410   Biso      1.000     C          0.094362  
         C2        1.0000    0.20510   0.57800   0.60430   Biso      1.000     C          -0.049191000000000006         
         C3        1.0000    0.81050   0.27090   0.81770   Biso      1.000     C          -0.160628           
         C4        1.0000    0.86990   0.35880   0.72710   Biso      1.000     C          0.092561  
         C5        1.0000    0.46040   0.08860   0.72910   Biso      1.000     C          -0.161704           
         C6        1.0000    0.53960   0.91140   0.27090   Biso      1.000     C          -0.16170299999999999          
         C7        1.0000    0.62820   0.81770   0.91140   Biso      1.000     C          -0.164072           
         C8        1.0000    0.51110   0.91410   0.35880   Biso      1.000     C          0.090959  
         C9        1.0000    0.18950   0.72910   0.18230   Biso      1.000     C          -0.160628           
         C10       1.0000    0.62710   0.81770   0.57800   Biso      1.000     C          -0.045474           
         C11       1.0000    0.80940   0.60430   0.81770   Biso      1.000     C          -0.046426           
         C12       1.0000    0.79490   0.60430   0.57800   Biso      1.000     C          -0.049174           
         C13       1.0000    0.18950   0.81770   0.27090   Biso      1.000     C          -0.160636           
         C14       1.0000    0.79490   0.42200   0.39570   Biso      1.000     C          -0.049191000000000006         
         C15       1.0000    0.40300   0.91410   0.72710   Biso      1.000     C          0.094361  
         C16       1.0000    0.37180   0.91140   0.81770   Biso      1.000     C          -0.16405799999999998          
         C17       1.0000    0.19060   0.81770   0.60430   Biso      1.000     C          -0.046407           
         C18       1.0000    0.48890   0.35880   0.91410   Biso      1.000     C          0.09095299999999999           
         C19       1.0000    0.46040   0.27090   0.91140   Biso      1.000     C          -0.161687           
         C20       1.0000    0.37290   0.57800   0.81770   Biso      1.000     C          -0.045488           
         C21       1.0000    0.48890   0.08590   0.64120   Biso      1.000     C          0.090958  
         C22       1.0000    0.13010   0.72710   0.35880   Biso      1.000     C          0.092561  
         C23       1.0000    0.40300   0.27290   0.08590   Biso      1.000     C          0.09436   
         C24       1.0000    0.81050   0.18230   0.72910   Biso      1.000     C          -0.160636           
         C25       1.0000    0.19060   0.39570   0.18230   Biso      1.000     C          -0.046426           
         C26       1.0000    0.36550   0.08320   0.00000   Biso      1.000     C          0.370609  
         C27       1.0000    0.39785   0.18145   0.00000   Biso      1.000     C          0.048655000000000004          
         C28       1.0000    0.36550   0.00000   0.91680   Biso      1.000     C          0.370643  
         C29       1.0000    0.39785   0.00000   0.81855   Biso      1.000     C          0.048688999999999996          
         C30       1.0000    0.28230   0.91680   0.08320   Biso      1.000     C          0.373313  
         C31       1.0000    0.21640   0.81855   0.18145   Biso      1.000     C          0.044489  
         C32       1.0000    0.63450   0.91680   0.00000   Biso      1.000     C          0.37061   
         C33       1.0000    0.60215   0.81855   0.00000   Biso      1.000     C          0.048655000000000004          
         C34       1.0000    0.71770   0.08320   0.91680   Biso      1.000     C          0.373314  
         C35       1.0000    0.78360   0.18145   0.81855   Biso      1.000     C          0.044489  
         C36       1.0000    0.63450   0.00000   0.08320   Biso      1.000     C          0.370645  
         C37       1.0000    0.60215   0.00000   0.18145   Biso      1.000     C          0.048681  
         C38       1.0000    0.62710   0.42200   0.18230   Biso      1.000     C          -0.045488           
         C39       1.0000    0.53960   0.72910   0.08860   Biso      1.000     C          -0.161684           
         C40       1.0000    0.51110   0.64120   0.08590   Biso      1.000     C          0.090958  
         C41       1.0000    0.80940   0.18230   0.39570   Biso      1.000     C          -0.046406           
         C42       1.0000    0.62820   0.08860   0.18230   Biso      1.000     C          -0.164054           
         C43       1.0000    0.59700   0.08590   0.27290   Biso      1.000     C          0.094365  
         C44       1.0000    0.20510   0.39570   0.42200   Biso      1.000     C          -0.049174           
         C45       1.0000    0.13010   0.64120   0.27290   Biso      1.000     C          0.092561  
         C46       1.0000    0.86990   0.27290   0.64120   Biso      1.000     C          0.092561  
         C47       1.0000    0.37180   0.18230   0.08860   Biso      1.000     C          -0.16406300000000001          
         C48       1.0000    0.37290   0.18230   0.42200   Biso      1.000     C          -0.045474           
         Fe1       1.0000    0.50000   0.00000   0.50000   Biso      1.000     Fe          0.465235  
         Fe2       1.0000    0.50000   0.50000   0.00000   Biso      1.000     Fe          0.465228  
         Fe3       1.0000    0.00000   0.50000   0.50000   Biso      1.000     Fe          0.465301  
         H1        1.0000    0.46910   0.85370   0.41960   Biso      1.000     H          0.105296  
         H2        1.0000    0.51680   0.85040   0.27200   Biso      1.000     H          0.131916  
         H3        1.0000    0.88870   0.41960   0.72670   Biso      1.000     H          0.104843  
         H4        1.0000    0.78880   0.27200   0.87760   Biso      1.000     H          0.131324  
         H5        1.0000    0.61540   0.72670   0.85370   Biso      1.000     H          0.103995  
         H6        1.0000    0.66640   0.87760   0.85040   Biso      1.000     H          0.132049  
         H7        1.0000    0.11130   0.72670   0.41960   Biso      1.000     H          0.104848  
         H8        1.0000    0.21120   0.87760   0.27200   Biso      1.000     H          0.131329  
         H9        1.0000    0.38460   0.85370   0.72670   Biso      1.000     H          0.103994  
         H10       1.0000    0.33360   0.85040   0.87760   Biso      1.000     H          0.13203099999999998           
         H11       1.0000    0.53090   0.41960   0.85370   Biso      1.000     H          0.10528900000000001           
         H12       1.0000    0.51680   0.72800   0.14960   Biso      1.000     H          0.131913  
         H13       1.0000    0.53090   0.14630   0.58040   Biso      1.000     H          0.105296  
         H14       1.0000    0.48320   0.27200   0.85040   Biso      1.000     H          0.131913  
         H15       1.0000    0.66640   0.14960   0.12240   Biso      1.000     H          0.13203099999999998           
         H16       1.0000    0.61540   0.14630   0.27330   Biso      1.000     H          0.103994  
         H17       1.0000    0.78880   0.12240   0.72800   Biso      1.000     H          0.131329  
         H18       1.0000    0.88870   0.27330   0.58040   Biso      1.000     H          0.104848  
         H19       1.0000    0.46910   0.58040   0.14630   Biso      1.000     H          0.105288  
         H20       1.0000    0.38460   0.27330   0.14630   Biso      1.000     H          0.103994  
         H21       1.0000    0.21120   0.72800   0.12240   Biso      1.000     H          0.131324  
         H22       1.0000    0.11130   0.58040   0.27330   Biso      1.000     H          0.104843  
         H23       1.0000    0.48320   0.14960   0.72800   Biso      1.000     H          0.131915  
         H24       1.0000    0.33360   0.12240   0.14960   Biso      1.000     H          0.132048  
         N1        1.0000    0.30636   0.00000   0.08822   Biso      1.000     N          -0.401806           
         N2        1.0000    0.54150   0.00000   0.36010   Biso      1.000     N          -0.1228   
         N3        1.0000    0.69364   0.00000   0.91178   Biso      1.000     N          -0.401806           
         N4        1.0000    0.69364   0.08822   0.00000   Biso      1.000     N          -0.40181100000000003          
         N5        1.0000    0.60542   0.91178   0.08822   Biso      1.000     N          -0.400454           
         N6        1.0000    0.45850   0.36010   0.00000   Biso      1.000     N          -0.12278399999999999          
         N7        1.0000    0.45850   0.00000   0.63990   Biso      1.000     N          -0.122799           
         N8        1.0000    0.09840   0.63990   0.36010   Biso      1.000     N          -0.12281199999999999          
         N9        1.0000    0.54150   0.63990   0.00000   Biso      1.000     N          -0.12278499999999999          
         N10       1.0000    0.90160   0.36010   0.63990   Biso      1.000     N          -0.12281199999999999          
         N11       1.0000    0.58790   0.44450   0.11420   Biso      1.000     N          -0.267879           
         N12       1.0000    0.41210   0.55550   0.88580   Biso      1.000     N          -0.267879           
         N13       1.0000    0.14340   0.44130   0.44450   Biso      1.000     N          -0.26508000000000004          
         N14       1.0000    0.29790   0.44130   0.11420   Biso      1.000     N          -0.267461           
         N15       1.0000    0.85660   0.44450   0.44130   Biso      1.000     N          -0.265071           
         N16       1.0000    0.41210   0.11420   0.44450   Biso      1.000     N          -0.267888           
         N17       1.0000    0.29790   0.88580   0.55870   Biso      1.000     N          -0.267485           
         N18       1.0000    0.85660   0.55870   0.55550   Biso      1.000     N          -0.26508000000000004          
         N19       1.0000    0.70210   0.55870   0.88580   Biso      1.000     N          -0.267461           
         N20       1.0000    0.14340   0.55550   0.55870   Biso      1.000     N          -0.265071           
         N21       1.0000    0.58790   0.88580   0.55550   Biso      1.000     N          -0.267887           
         N22       1.0000    0.30636   0.91178   0.00000   Biso      1.000     N          -0.40181100000000003          
         N23       1.0000    0.70210   0.11420   0.44130   Biso      1.000     N          -0.267486           
         N24       1.0000    0.39458   0.08822   0.91178   Biso      1.000     N          -0.400453 