
##########################################################################
#               Crystallographic Information Format file
#               Produced by PyCifRW module
#
#  This is a CIF file.  CIF has been adopted by the International
#  Union of Crystallography as the standard for data archiving and
#  transmission.
#
#  For information on this file format, follow the CIF links at
#  http://www.iucr.org
##########################################################################

data_image0

_cell_length_a                          10.2403
_cell_length_b                          20.417
_cell_length_c                          21.7334
_cell_angle_alpha                       90
_cell_angle_beta                        90
_cell_angle_gamma                       95.301
_symmetry_space_group_name_H-M          'P 1'
_symmetry_int_tables_number             1
loop_
  _symmetry_equiv_pos_as_xyz
         'x, y, z' 
loop_
  _atom_site_label
  _atom_site_occupancy
  _atom_site_fract_x
  _atom_site_fract_y
  _atom_site_fract_z
  _atom_site_thermal_displace_type
  _atom_site_B_iso_or_equiv
  _atom_site_type_symbol
  _atom_site_charge
         C1        1.0000    0.59590   0.53527   0.07781   Biso      1.000     C          0.296363  
         C2        1.0000    0.82420   0.20919   0.26838   Biso      1.000     C          -0.050377           
         C3        1.0000    0.43030   0.06659   0.22932   Biso      1.000     C          0.291467  
         C4        1.0000    0.40270   0.00271   0.35537   Biso      1.000     C          0.297755  
         C5        1.0000    0.44780   0.11294   0.45453   Biso      1.000     C          0.292587  
         C6        1.0000    0.50720   0.24452   0.38632   Biso      1.000     C          0.252144  
         C7        1.0000    0.49750   0.21720   0.24823   Biso      1.000     C          0.299452  
         C8        1.0000    0.82850   0.23059   0.32969   Biso      1.000     C          -0.052614           
         C9        1.0000    0.44500   0.10089   0.28639   Biso      1.000     C          -0.050875           
         C10       1.0000    0.47850   0.18133   0.35898   Biso      1.000     C          -0.050673           
         C11       1.0000    0.47400   0.16851   0.29491   Biso      1.000     C          -0.055045           
         C12       1.0000    0.86220   0.03320   0.92514   Biso      1.000     C          -0.4593   
         C13       1.0000    0.65790   0.72910   0.21661   Biso      1.000     C          0.290276  
         C14       1.0000    0.60590   0.57880   0.21282   Biso      1.000     C          0.247674  
         C15       1.0000    0.63340   0.66183   0.99610   Biso      1.000     C          0.311687  
         C16       1.0000    0.45280   0.12059   0.38954   Biso      1.000     C          -0.046175           
         C17       1.0000    0.80490   0.17497   0.36750   Biso      1.000     C          -0.047425           
         C18       1.0000    0.78590   0.11908   0.33003   Biso      1.000     C          -0.056499           
         C19       1.0000    0.79690   0.14024   0.26807   Biso      1.000     C          -0.046267           
         C20       1.0000    0.15790   0.22910   0.28339   Biso      1.000     C          0.290276  
         C21       1.0000    0.10590   0.07880   0.28718   Biso      1.000     C          0.247673  
         C22       1.0000    0.09590   0.03527   0.42219   Biso      1.000     C          0.296363  
         C23       1.0000    0.13340   0.16183   0.50390   Biso      1.000     C          0.311687  
         C24       1.0000    0.17160   0.28082   0.41702   Biso      1.000     C          0.286528  
         C25       1.0000    0.14360   0.19053   0.33798   Biso      1.000     C          -0.059659           
         C26       1.0000    0.12010   0.12148   0.33965   Biso      1.000     C          -0.047076           
         C27       1.0000    0.11280   0.10167   0.40196   Biso      1.000     C          -0.053838           
         C28       1.0000    0.13200   0.15902   0.43826   Biso      1.000     C          -0.050927           
         C29       1.0000    0.15080   0.21370   0.39917   Biso      1.000     C          -0.048953           
         C30       1.0000    0.77820   0.09924   0.21493   Biso      1.000     C          0.285118  
         C31       1.0000    0.75680   0.05287   0.34968   Biso      1.000     C          0.295252  
         C32       1.0000    0.80140   0.17504   0.43311   Biso      1.000     C          0.283828  
         C33       1.0000    0.85430   0.29678   0.34991   Biso      1.000     C          0.288425  
         C34       1.0000    0.84360   0.25022   0.21462   Biso      1.000     C          0.310291  
         C35       1.0000    0.67160   0.78082   0.08298   Biso      1.000     C          0.286528  
         C36       1.0000    0.36220   0.53320   0.57486   Biso      1.000     C          -0.4593   
         C37       1.0000    0.64360   0.69053   0.16202   Biso      1.000     C          -0.05966  
         C38       1.0000    0.61280   0.60167   0.09804   Biso      1.000     C          -0.053839           
         C39       1.0000    0.04720   0.37941   0.88954   Biso      1.000     C          -0.046175           
         C40       1.0000    0.02150   0.31867   0.85898   Biso      1.000     C          -0.050674           
         C41       1.0000    0.02600   0.33149   0.79491   Biso      1.000     C          -0.055044           
         C42       1.0000    0.63780   0.46680   0.42514   Biso      1.000     C          -0.4593   
         C43       1.0000    0.84210   0.77090   0.71661   Biso      1.000     C          0.290276  
         C44       1.0000    0.89410   0.92120   0.71282   Biso      1.000     C          0.247673  
         C45       1.0000    0.06750   0.42892   0.84518   Biso      1.000     C          -0.055093           
         C46       1.0000    0.90410   0.96473   0.57781   Biso      1.000     C          0.296363  
         C47       1.0000    0.82840   0.71918   0.58298   Biso      1.000     C          0.286527  
         C48       1.0000    0.85640   0.80947   0.66202   Biso      1.000     C          -0.059659           
         C49       1.0000    0.87990   0.87852   0.66035   Biso      1.000     C          -0.047076           
         C50       1.0000    0.88720   0.89833   0.59804   Biso      1.000     C          -0.053838           
         C51       1.0000    0.86800   0.84098   0.56174   Biso      1.000     C          -0.050928           
         C52       1.0000    0.84920   0.78630   0.60083   Biso      1.000     C          -0.048953           
         C53       1.0000    0.86660   0.83817   0.49610   Biso      1.000     C          0.311688  
         C54       1.0000    0.05500   0.39911   0.78639   Biso      1.000     C          -0.050875           
         C55       1.0000    0.00250   0.28280   0.74823   Biso      1.000     C          0.299452  
         C56       1.0000    0.99280   0.25548   0.88632   Biso      1.000     C          0.252143  
         C57       1.0000    0.63200   0.65902   0.06174   Biso      1.000     C          -0.050927           
         C58       1.0000    0.65080   0.71370   0.10083   Biso      1.000     C          -0.048953           
         C59       1.0000    0.72180   0.40076   0.71493   Biso      1.000     C          0.285118  
         C60       1.0000    0.74320   0.44713   0.84968   Biso      1.000     C          0.295254  
         C61       1.0000    0.69860   0.32496   0.93311   Biso      1.000     C          0.283829  
         C62       1.0000    0.64570   0.20322   0.84991   Biso      1.000     C          0.288427  
         C63       1.0000    0.65640   0.24978   0.71462   Biso      1.000     C          0.310291  
         C64       1.0000    0.70310   0.35976   0.76807   Biso      1.000     C          -0.046266           
         C65       1.0000    0.71410   0.38092   0.83003   Biso      1.000     C          -0.056499           
         C66       1.0000    0.69510   0.32503   0.86750   Biso      1.000     C          -0.047425           
         C67       1.0000    0.67150   0.26941   0.82969   Biso      1.000     C          -0.052615           
         C68       1.0000    0.67580   0.29081   0.76838   Biso      1.000     C          -0.050378           
         C69       1.0000    0.06970   0.43341   0.72932   Biso      1.000     C          0.291466  
         C70       1.0000    0.09730   0.49729   0.85537   Biso      1.000     C          0.297754  
         C71       1.0000    0.05220   0.38706   0.95453   Biso      1.000     C          0.292587  
         C72       1.0000    0.62010   0.62148   0.16035   Biso      1.000     C          -0.047076           
         C73       1.0000    0.97400   0.66851   0.20509   Biso      1.000     C          -0.055044           
         C74       1.0000    0.43250   0.07108   0.34518   Biso      1.000     C          -0.055094           
         C75       1.0000    0.95280   0.62059   0.11046   Biso      1.000     C          -0.046175           
         C76       1.0000    0.34210   0.27090   0.78339   Biso      1.000     C          0.290276  
         C77       1.0000    0.13780   0.96680   0.07486   Biso      1.000     C          -0.4593   
         C78       1.0000    0.52600   0.83149   0.70509   Biso      1.000     C          -0.055044           
         C79       1.0000    0.52150   0.81867   0.64102   Biso      1.000     C          -0.050674           
         C80       1.0000    0.54720   0.87941   0.61046   Biso      1.000     C          -0.046175           
         C81       1.0000    0.56750   0.92892   0.65482   Biso      1.000     C          -0.055092           
         C82       1.0000    0.55500   0.89911   0.71361   Biso      1.000     C          -0.050875           
         C83       1.0000    0.50250   0.78280   0.75177   Biso      1.000     C          0.299453  
         C84       1.0000    0.49280   0.75548   0.61368   Biso      1.000     C          0.252144  
         C85       1.0000    0.55220   0.88706   0.54547   Biso      1.000     C          0.292587  
         C86       1.0000    0.39410   0.42120   0.78718   Biso      1.000     C          0.247673  
         C87       1.0000    0.59730   0.99729   0.64463   Biso      1.000     C          0.297754  
         C88       1.0000    0.17580   0.79081   0.73162   Biso      1.000     C          -0.050377           
         C89       1.0000    0.17150   0.76941   0.67031   Biso      1.000     C          -0.052614           
         C90       1.0000    0.19510   0.82503   0.63250   Biso      1.000     C          -0.047425           
         C91       1.0000    0.21410   0.88092   0.66997   Biso      1.000     C          -0.056498           
         C92       1.0000    0.20310   0.85976   0.73193   Biso      1.000     C          -0.046267           
         C93       1.0000    0.15640   0.74978   0.78538   Biso      1.000     C          0.310291  
         C94       1.0000    0.19860   0.82496   0.56689   Biso      1.000     C          0.283829  
         C95       1.0000    0.24320   0.94713   0.65032   Biso      1.000     C          0.295252  
         C96       1.0000    0.22180   0.90076   0.78507   Biso      1.000     C          0.285119  
         C97       1.0000    0.97850   0.68133   0.14102   Biso      1.000     C          -0.050674           
         C98       1.0000    0.56970   0.93341   0.77068   Biso      1.000     C          0.291466  
         C99       1.0000    0.40410   0.46473   0.92219   Biso      1.000     C          0.296363  
         C100      1.0000    0.14570   0.70322   0.65009   Biso      1.000     C          0.288426  
         C101      1.0000    0.32840   0.21918   0.91702   Biso      1.000     C          0.286527  
         C102      1.0000    0.36660   0.33817   0.00390   Biso      1.000     C          0.311688  
         C103      1.0000    0.94500   0.60089   0.21361   Biso      1.000     C          -0.050875           
         C104      1.0000    0.99750   0.71720   0.25177   Biso      1.000     C          0.299453  
         C105      1.0000    0.00720   0.74452   0.11368   Biso      1.000     C          0.252144  
         C106      1.0000    0.94780   0.61294   0.04547   Biso      1.000     C          0.292588  
         C107      1.0000    0.90270   0.50271   0.14463   Biso      1.000     C          0.297755  
         C108      1.0000    0.93030   0.56659   0.27068   Biso      1.000     C          0.291466  
         C109      1.0000    0.32420   0.70919   0.23162   Biso      1.000     C          -0.050376           
         C110      1.0000    0.32850   0.73059   0.17031   Biso      1.000     C          -0.052614           
         C111      1.0000    0.30490   0.67497   0.13250   Biso      1.000     C          -0.047425           
         C112      1.0000    0.29690   0.64024   0.23193   Biso      1.000     C          -0.046266           
         C113      1.0000    0.28590   0.61908   0.16997   Biso      1.000     C          -0.056499           
         C114      1.0000    0.35430   0.79678   0.15009   Biso      1.000     C          0.288426  
         C115      1.0000    0.30140   0.67504   0.06689   Biso      1.000     C          0.283829  
         C116      1.0000    0.25680   0.55287   0.15032   Biso      1.000     C          0.295253  
         C117      1.0000    0.27820   0.59924   0.28507   Biso      1.000     C          0.285118  
         C118      1.0000    0.34920   0.28630   0.89917   Biso      1.000     C          -0.048953           
         C119      1.0000    0.36800   0.34098   0.93826   Biso      1.000     C          -0.050928           
         C120      1.0000    0.34360   0.75022   0.28538   Biso      1.000     C          0.31029   
         C121      1.0000    0.38720   0.39833   0.90196   Biso      1.000     C          -0.053838           
         C122      1.0000    0.37990   0.37852   0.83965   Biso      1.000     C          -0.047076           
         C123      1.0000    0.93250   0.57108   0.15482   Biso      1.000     C          -0.055094           
         C124      1.0000    0.35640   0.30947   0.83798   Biso      1.000     C          -0.059659           
         H1        1.0000    0.44250   0.51250   0.57630   Biso      1.000     H          0.200608  
         H2        1.0000    0.38140   0.57960   0.56860   Biso      1.000     H          0.200884  
         H3        1.0000    0.05750   0.98750   0.07630   Biso      1.000     H          0.200608  
         H4        1.0000    0.31580   0.52570   0.61300   Biso      1.000     H          0.189276  
         H5        1.0000    0.11860   0.92040   0.06860   Biso      1.000     H          0.200884  
         H6        1.0000    0.88140   0.07960   0.93140   Biso      1.000     H          0.200885  
         H7        1.0000    0.18420   0.97430   0.11300   Biso      1.000     H          0.189276  
         H8        1.0000    0.81580   0.02570   0.88700   Biso      1.000     H          0.189276  
         H9        1.0000    0.61860   0.42040   0.43140   Biso      1.000     H          0.200884  
         H10       1.0000    0.55750   0.48750   0.42370   Biso      1.000     H          0.200608  
         H11       1.0000    0.68420   0.47430   0.38700   Biso      1.000     H          0.189276  
         H12       1.0000    0.94250   0.01250   0.92370   Biso      1.000     H          0.200608  
         N1        1.0000    0.37810   0.94737   0.36222   Biso      1.000     N          -0.436482           
         N2        1.0000    0.41910   0.03871   0.18400   Biso      1.000     N          -0.408352           
         N3        1.0000    0.85860   0.28194   0.17191   Biso      1.000     N          -0.447552           
         N4        1.0000    0.87580   0.35010   0.36680   Biso      1.000     N          -0.406872           
         N5        1.0000    0.79830   0.17539   0.48566   Biso      1.000     N          -0.398892           
         N6        1.0000    0.73300   0.00014   0.36519   Biso      1.000     N          -0.408644           
         N7        1.0000    0.76070   0.06647   0.17250   Biso      1.000     N          -0.399321           
         N8        1.0000    0.13540   0.16571   0.55642   Biso      1.000     N          -0.455494           
         N9        1.0000    0.08360   0.98164   0.43630   Biso      1.000     N          -0.401164           
         N10       1.0000    0.09540   0.04610   0.24515   Biso      1.000     N          -0.357927           
         N11       1.0000    0.16810   0.25882   0.23904   Biso      1.000     N          -0.417732           
         N12       1.0000    0.28010   0.50508   0.52369   Biso      1.000     N          0.674015  
         N13       1.0000    0.01800   0.75662   0.28861   Biso      1.000     N          -0.420548           
         N14       1.0000    0.03090   0.79536   0.09274   Biso      1.000     N          -0.355509           
         N15       1.0000    0.18740   0.33512   0.43050   Biso      1.000     N          -0.408249           
         N16       1.0000    0.44160   0.10887   0.50680   Biso      1.000     N          -0.399508           
         N17       1.0000    0.51800   0.25662   0.21139   Biso      1.000     N          -0.420549           
         N18       1.0000    0.78010   0.00508   0.97631   Biso      1.000     N          0.674015  
         N19       1.0000    0.94160   0.60887   0.99320   Biso      1.000     N          -0.399509           
         N20       1.0000    0.12190   0.55263   0.86222   Biso      1.000     N          -0.436482           
         N21       1.0000    0.08090   0.46129   0.68400   Biso      1.000     N          -0.408352           
         N22       1.0000    0.64140   0.21806   0.67191   Biso      1.000     N          -0.447551           
         N23       1.0000    0.05840   0.39113   0.00680   Biso      1.000     N          -0.399509           
         N24       1.0000    0.62420   0.14990   0.86680   Biso      1.000     N          -0.406872           
         N25       1.0000    0.53090   0.29536   0.40726   Biso      1.000     N          -0.355509           
         N26       1.0000    0.70170   0.32461   0.98566   Biso      1.000     N          -0.398892           
         N27       1.0000    0.73930   0.43353   0.67250   Biso      1.000     N          -0.399321           
         N28       1.0000    0.68740   0.83512   0.06950   Biso      1.000     N          -0.408248           
         N29       1.0000    0.63540   0.66571   0.94358   Biso      1.000     N          -0.455493           
         N30       1.0000    0.58360   0.48164   0.06370   Biso      1.000     N          -0.401163           
         N31       1.0000    0.59540   0.54610   0.25485   Biso      1.000     N          -0.357927           
         N32       1.0000    0.66810   0.75882   0.26096   Biso      1.000     N          -0.417732           
         N33       1.0000    0.76700   0.49986   0.86519   Biso      1.000     N          -0.408644           
         N34       1.0000    0.87810   0.44737   0.13778   Biso      1.000     N          -0.436482           
         N35       1.0000    0.91640   0.01836   0.56370   Biso      1.000     N          -0.401163           
         N36       1.0000    0.35860   0.78194   0.32809   Biso      1.000     N          -0.447551           
         N37       1.0000    0.96910   0.20464   0.90726   Biso      1.000     N          -0.355509           
         N38       1.0000    0.71990   0.49492   0.47631   Biso      1.000     N          0.674015  
         N39       1.0000    0.83190   0.74118   0.76096   Biso      1.000     N          -0.417732           
         N40       1.0000    0.90460   0.95390   0.75485   Biso      1.000     N          -0.357927           
         N41       1.0000    0.86460   0.83429   0.44358   Biso      1.000     N          -0.455494           
         N42       1.0000    0.81260   0.66488   0.56950   Biso      1.000     N          -0.408248           
         N43       1.0000    0.23930   0.93353   0.82750   Biso      1.000     N          -0.39932  
         N44       1.0000    0.26700   0.99986   0.63481   Biso      1.000     N          -0.408643           
         N45       1.0000    0.20170   0.82461   0.51434   Biso      1.000     N          -0.398892           
         N46       1.0000    0.91910   0.53871   0.31600   Biso      1.000     N          -0.408351           
         N47       1.0000    0.14140   0.71806   0.82809   Biso      1.000     N          -0.447551           
         N48       1.0000    0.58090   0.96129   0.81600   Biso      1.000     N          -0.408352           
         N49       1.0000    0.62190   0.05263   0.63778   Biso      1.000     N          -0.436482           
         N50       1.0000    0.12420   0.64990   0.63320   Biso      1.000     N          -0.406872           
         N51       1.0000    0.46910   0.70464   0.59274   Biso      1.000     N          -0.355508           
         N52       1.0000    0.37580   0.85010   0.13320   Biso      1.000     N          -0.406871           
         N53       1.0000    0.29830   0.67539   0.01434   Biso      1.000     N          -0.398892           
         N54       1.0000    0.23300   0.50014   0.13481   Biso      1.000     N          -0.408644           
         N55       1.0000    0.26070   0.56647   0.32750   Biso      1.000     N          -0.39932  
         N56       1.0000    0.31260   0.16488   0.93050   Biso      1.000     N          -0.408247           
         N57       1.0000    0.36460   0.33429   0.05642   Biso      1.000     N          -0.455494           
         N58       1.0000    0.55840   0.89113   0.49320   Biso      1.000     N          -0.399509           
         N59       1.0000    0.98200   0.24338   0.71139   Biso      1.000     N          -0.420548           
         N60       1.0000    0.41640   0.51836   0.93630   Biso      1.000     N          -0.401164           
         N61       1.0000    0.40460   0.45390   0.74515   Biso      1.000     N          -0.357927           
         N62       1.0000    0.33190   0.24118   0.73904   Biso      1.000     N          -0.417732           
         N63       1.0000    0.21990   0.99492   0.02369   Biso      1.000     N          0.674015  
         N64       1.0000    0.48200   0.74338   0.78861   Biso      1.000     N          -0.420549           
         O1        1.0000    0.66560   0.98635   0.96619   Biso      1.000     O          -0.417705           
         O2        1.0000    0.17000   0.99723   0.97265   Biso      1.000     O          -0.364297           
         O3        1.0000    0.33440   0.01365   0.03381   Biso      1.000     O          -0.417704           
         O4        1.0000    0.83000   0.00277   0.02735   Biso      1.000     O          -0.364297           
         O5        1.0000    0.33000   0.50277   0.47265   Biso      1.000     O          -0.364297           
         O6        1.0000    0.16560   0.48635   0.53381   Biso      1.000     O          -0.417704           
         O7        1.0000    0.67000   0.49723   0.52735   Biso      1.000     O          -0.364298           
         O8        1.0000    0.83440   0.51365   0.46619   Biso      1.000     O          -0.417705           
         Rb1       1.0000    0.87725   0.64114   0.86397   Biso      1.000     Rb          0.858399  
         Rb2       1.0000    0.92993   0.53580   0.59681   Biso      1.000     Rb          0.829125  
         Rb3       1.0000    0.86772   0.14834   0.61747   Biso      1.000     Rb          0.853884  
         Rb4       1.0000    0.62275   0.85886   0.36397   Biso      1.000     Rb          0.858399  
         Rb5       1.0000    0.57007   0.96420   0.09681   Biso      1.000     Rb          0.829126  
         Rb6       1.0000    0.63228   0.35166   0.11747   Biso      1.000     Rb          0.853884  
         Rb7       1.0000    0.12275   0.35886   0.13603   Biso      1.000     Rb          0.8584    
         Rb8       1.0000    0.07007   0.46420   0.40319   Biso      1.000     Rb          0.829125  
         Rb9       1.0000    0.13228   0.85166   0.38253   Biso      1.000     Rb          0.853884  
         Rb10      1.0000    0.37725   0.14114   0.63603   Biso      1.000     Rb          0.8584    
         Rb11      1.0000    0.42993   0.03580   0.90319   Biso      1.000     Rb          0.829125  
         Rb12      1.0000    0.36772   0.64834   0.88253   Biso      1.000     Rb          0.853885 