
##########################################################################
#               Crystallographic Information Format file
#               Produced by PyCifRW module
#
#  This is a CIF file.  CIF has been adopted by the International
#  Union of Crystallography as the standard for data archiving and
#  transmission.
#
#  For information on this file format, follow the CIF links at
#  http://www.iucr.org
##########################################################################

data_image0

_cell_length_a                          5.1474
_cell_length_b                          18.232
_cell_length_c                          26.783
_cell_angle_alpha                       90
_cell_angle_beta                        90.08
_cell_angle_gamma                       90
_symmetry_space_group_name_H-M          'P 1'
_symmetry_int_tables_number             1
loop_
  _symmetry_equiv_pos_as_xyz
         'x, y, z' 
loop_
  _atom_site_label
  _atom_site_occupancy
  _atom_site_fract_x
  _atom_site_fract_y
  _atom_site_fract_z
  _atom_site_thermal_displace_type
  _atom_site_B_iso_or_equiv
  _atom_site_type_symbol
  _atom_site_charge
         C1        1.0000    0.80200   0.14110   0.70870   Biso      1.000     C          -0.136971           
         C2        1.0000    0.41900   0.22080   0.70430   Biso      1.000     C          0.22339   
         C3        1.0000    0.66200   0.06280   0.55840   Biso      1.000     C          0.647997  
         C4        1.0000    0.72100   0.09300   0.61180   Biso      1.000     C          -0.044216000000000005         
         C5        1.0000    0.56200   0.14380   0.63260   Biso      1.000     C          -0.13168  
         C6        1.0000    0.59900   0.16700   0.68230   Biso      1.000     C          0.024553  
         C7        1.0000    0.40100   0.83300   0.31770   Biso      1.000     C          0.02454   
         C8        1.0000    0.08300   0.30850   0.74150   Biso      1.000     C          0.24385900000000002           
         C9        1.0000    0.98100   0.08950   0.68850   Biso      1.000     C          -0.083762           
         C10       1.0000    0.67800   0.22440   0.51380   Biso      1.000     C          0.67001   
         C11       1.0000    0.62200   0.29670   0.53800   Biso      1.000     C          -0.044978           
         C12       1.0000    0.42200   0.34150   0.51950   Biso      1.000     C          -0.120832           
         C13       1.0000    0.39700   0.41210   0.53790   Biso      1.000     C          0.033332  
         C14       1.0000    0.55200   0.43820   0.57350   Biso      1.000     C          -0.126699           
         C15       1.0000    0.76100   0.39710   0.59160   Biso      1.000     C          -0.078955           
         C16       1.0000    0.93600   0.06790   0.63820   Biso      1.000     C          -0.08103099999999999          
         C17       1.0000    0.78400   0.32480   0.57250   Biso      1.000     C          -0.096804           
         C18       1.0000    0.48600   0.43710   0.80140   Biso      1.000     C          -0.085397           
         C19       1.0000    0.70300   0.38940   0.73070   Biso      1.000     C          -0.134095           
         C20       1.0000    0.01900   0.58950   0.81150   Biso      1.000     C          -0.08376499999999999          
         C21       1.0000    0.06400   0.56790   0.86180   Biso      1.000     C          -0.081038           
         C22       1.0000    0.67800   0.27560   0.01380   Biso      1.000     C          0.670013  
         C23       1.0000    0.62200   0.20330   0.03800   Biso      1.000     C          -0.044999000000000004         
         C24       1.0000    0.42200   0.15850   0.01950   Biso      1.000     C          -0.12083800000000001          
         C25       1.0000    0.39700   0.08790   0.03790   Biso      1.000     C          0.033331  
         C26       1.0000    0.50300   0.43190   0.75050   Biso      1.000     C          -0.086464           
         C27       1.0000    0.55200   0.06180   0.07350   Biso      1.000     C          -0.126695           
         C28       1.0000    0.78400   0.17520   0.07250   Biso      1.000     C          -0.09681000000000001          
         C29       1.0000    0.17700   0.04200   0.01760   Biso      1.000     C          0.23376599999999997           
         C30       1.0000    0.60600   0.40840   0.88980   Biso      1.000     C          0.6797350000000001  
         C31       1.0000    0.66300   0.40010   0.83330   Biso      1.000     C          -0.036186           
         C32       1.0000    0.84800   0.36400   0.81400   Biso      1.000     C          -0.11486500000000001          
         C33       1.0000    0.89000   0.35650   0.76270   Biso      1.000     C          0.015588  
         C34       1.0000    0.76100   0.10290   0.09160   Biso      1.000     C          -0.07897  
         C35       1.0000    0.19800   0.64110   0.79130   Biso      1.000     C          -0.136968           
         C36       1.0000    0.17700   0.45800   0.51760   Biso      1.000     C          0.233765  
         C37       1.0000    0.66300   0.09990   0.33330   Biso      1.000     C          -0.036188           
         C38       1.0000    0.44800   0.93820   0.92650   Biso      1.000     C          -0.12673900000000002          
         C39       1.0000    0.23900   0.89710   0.90840   Biso      1.000     C          -0.07896900000000001          
         C40       1.0000    0.21600   0.82480   0.92750   Biso      1.000     C          -0.096833           
         C41       1.0000    0.82300   0.95800   0.98240   Biso      1.000     C          0.23377199999999998           
         C42       1.0000    0.39400   0.59160   0.11020   Biso      1.000     C          0.679732  
         C43       1.0000    0.33700   0.59990   0.16670   Biso      1.000     C          -0.036187000000000004         
         C44       1.0000    0.60300   0.91210   0.96210   Biso      1.000     C          0.03336   
         C45       1.0000    0.15200   0.63600   0.18600   Biso      1.000     C          -0.11486199999999999          
         C46       1.0000    0.29700   0.61060   0.26930   Biso      1.000     C          -0.13408599999999998          
         C47       1.0000    0.49700   0.56810   0.24950   Biso      1.000     C          -0.08645599999999999          
         C48       1.0000    0.51400   0.56290   0.19860   Biso      1.000     C          -0.085401           
         C49       1.0000    0.91700   0.69150   0.25850   Biso      1.000     C          0.243848  
         C50       1.0000    0.58100   0.77920   0.29570   Biso      1.000     C          0.223377  
         C51       1.0000    0.33800   0.93720   0.44160   Biso      1.000     C          0.647995  
         C52       1.0000    0.11000   0.64350   0.23730   Biso      1.000     C          0.015599000000000002          
         C53       1.0000    0.60600   0.09160   0.38980   Biso      1.000     C          0.679732  
         C54       1.0000    0.57800   0.84150   0.98050   Biso      1.000     C          -0.120843           
         C55       1.0000    0.32200   0.72440   0.98620   Biso      1.000     C          0.670009  
         C56       1.0000    0.84800   0.13600   0.31400   Biso      1.000     C          -0.114869           
         C57       1.0000    0.89000   0.14350   0.26270   Biso      1.000     C          0.015602000000000001          
         C58       1.0000    0.70300   0.11060   0.23070   Biso      1.000     C          -0.13408299999999998          
         C59       1.0000    0.50300   0.06810   0.25050   Biso      1.000     C          -0.08645800000000001          
         C60       1.0000    0.48600   0.06290   0.30140   Biso      1.000     C          -0.085404           
         C61       1.0000    0.08300   0.19150   0.24150   Biso      1.000     C          0.24384899999999998           
         C62       1.0000    0.37800   0.79670   0.96200   Biso      1.000     C          -0.044979000000000005         
         C63       1.0000    0.41900   0.27920   0.20430   Biso      1.000     C          0.223386  
         C64       1.0000    0.72100   0.40700   0.11180   Biso      1.000     C          -0.044216000000000005         
         C65       1.0000    0.56200   0.35620   0.13260   Biso      1.000     C          -0.131675           
         C66       1.0000    0.59900   0.33300   0.18230   Biso      1.000     C          0.024533000000000003          
         C67       1.0000    0.80200   0.35890   0.20870   Biso      1.000     C          -0.136934           
         C68       1.0000    0.98100   0.41050   0.18850   Biso      1.000     C          -0.083762           
         C69       1.0000    0.93600   0.43210   0.13820   Biso      1.000     C          -0.081035           
         C70       1.0000    0.66200   0.43720   0.05840   Biso      1.000     C          0.6480020000000001  
         C71       1.0000    0.40100   0.66700   0.81770   Biso      1.000     C          0.024559  
         C72       1.0000    0.43800   0.64380   0.86740   Biso      1.000     C          -0.131685           
         C73       1.0000    0.27900   0.59300   0.88820   Biso      1.000     C          -0.044196           
         C74       1.0000    0.06400   0.93210   0.36180   Biso      1.000     C          -0.081039           
         C75       1.0000    0.01900   0.91050   0.31150   Biso      1.000     C          -0.083759           
         C76       1.0000    0.19800   0.85890   0.29130   Biso      1.000     C          -0.136935           
         C77       1.0000    0.27900   0.90700   0.38820   Biso      1.000     C          -0.044222000000000004         
         C78       1.0000    0.32200   0.77560   0.48620   Biso      1.000     C          0.6700050000000001  
         C79       1.0000    0.37800   0.70330   0.46200   Biso      1.000     C          -0.044976999999999996         
         C80       1.0000    0.57800   0.65850   0.48050   Biso      1.000     C          -0.120833           
         C81       1.0000    0.60300   0.58790   0.46210   Biso      1.000     C          0.033326999999999996          
         C82       1.0000    0.44800   0.56180   0.42650   Biso      1.000     C          -0.126697           
         C83       1.0000    0.23900   0.60290   0.40840   Biso      1.000     C          -0.078949           
         C84       1.0000    0.21600   0.67520   0.42750   Biso      1.000     C          -0.096789           
         C85       1.0000    0.43800   0.85620   0.36740   Biso      1.000     C          -0.131675           
         C86       1.0000    0.39400   0.90840   0.61020   Biso      1.000     C          0.679724  
         C87       1.0000    0.51400   0.93710   0.69860   Biso      1.000     C          -0.085414           
         C88       1.0000    0.91700   0.80850   0.75850   Biso      1.000     C          0.243848  
         C89       1.0000    0.58100   0.72080   0.79570   Biso      1.000     C          0.22338899999999998           
         C90       1.0000    0.33800   0.56280   0.94160   Biso      1.000     C          0.648     
         C91       1.0000    0.82300   0.54200   0.48240   Biso      1.000     C          0.233763  
         C92       1.0000    0.29700   0.88940   0.76930   Biso      1.000     C          -0.134074           
         C93       1.0000    0.11000   0.85650   0.73730   Biso      1.000     C          0.015607  
         C94       1.0000    0.15200   0.86400   0.68600   Biso      1.000     C          -0.114933           
         C95       1.0000    0.33700   0.90010   0.66670   Biso      1.000     C          -0.03612  
         C96       1.0000    0.49700   0.93190   0.74950   Biso      1.000     C          -0.08645800000000001          
         H1        1.0000    0.30610   0.17630   0.99480   Biso      1.000     H          0.118182  
         H2        1.0000    0.38260   0.45640   0.72940   Biso      1.000     H          0.12153599999999999           
         H3        1.0000    0.71510   0.38250   0.69560   Biso      1.000     H          0.106582  
         H4        1.0000    0.96630   0.34050   0.83590   Biso      1.000     H          0.11304700000000001           
         H5        1.0000    0.92060   0.20530   0.08470   Biso      1.000     H          0.107209  
         H6        1.0000    0.88090   0.08370   0.11530   Biso      1.000     H          0.11636700000000001           
         H7        1.0000    0.52040   0.01440   0.08680   Biso      1.000     H          0.11690899999999999           
         H8        1.0000    0.94440   0.53580   0.87770   Biso      1.000     H          0.11417100000000001           
         H9        1.0000    0.61740   0.95640   0.77060   Biso      1.000     H          0.12155899999999999           
         H10       1.0000    0.17360   0.65770   0.75800   Biso      1.000     H          0.11296500000000001           
         H11       1.0000    0.57620   0.66400   0.88660   Biso      1.000     H          0.11198499999999999           
         H12       1.0000    0.64730   0.96620   0.68430   Biso      1.000     H          0.09616   
         H13       1.0000    0.35270   0.46620   0.81570   Biso      1.000     H          0.096164  
         H14       1.0000    0.28490   0.88250   0.80440   Biso      1.000     H          0.1066    
         H15       1.0000    0.03370   0.84050   0.66410   Biso      1.000     H          0.11303900000000001           
         H16       1.0000    0.07940   0.70530   0.41530   Biso      1.000     H          0.10721900000000001           
         H17       1.0000    0.11910   0.58370   0.38470   Biso      1.000     H          0.11638599999999999           
         H18       1.0000    0.47960   0.51440   0.41320   Biso      1.000     H          0.11693699999999999           
         H19       1.0000    0.69390   0.67630   0.50520   Biso      1.000     H          0.11819600000000001           
         H20       1.0000    0.87740   0.57070   0.79260   Biso      1.000     H          0.117531  
         H21       1.0000    0.42380   0.16400   0.61340   Biso      1.000     H          0.111973  
         H22       1.0000    0.30610   0.32370   0.49480   Biso      1.000     H          0.11820399999999999           
         H23       1.0000    0.12260   0.07070   0.70740   Biso      1.000     H          0.11754500000000001           
         H24       1.0000    0.94440   0.96420   0.37770   Biso      1.000     H          0.114167  
         H25       1.0000    0.87740   0.92930   0.29260   Biso      1.000     H          0.117533  
         H26       1.0000    0.17360   0.84230   0.25800   Biso      1.000     H          0.11297   
         H27       1.0000    0.57620   0.83600   0.38660   Biso      1.000     H          0.11196199999999999           
         H28       1.0000    0.64730   0.53380   0.18430   Biso      1.000     H          0.09615900000000001           
         H29       1.0000    0.61740   0.54360   0.27060   Biso      1.000     H          0.121526  
         H30       1.0000    0.28490   0.61750   0.30440   Biso      1.000     H          0.106575  
         H31       1.0000    0.03370   0.65950   0.16410   Biso      1.000     H          0.11303699999999998           
         H32       1.0000    0.07940   0.79470   0.91530   Biso      1.000     H          0.107205  
         H33       1.0000    0.11910   0.91630   0.88470   Biso      1.000     H          0.11635899999999999           
         H34       1.0000    0.47960   0.98560   0.91320   Biso      1.000     H          0.116906  
         H35       1.0000    0.69390   0.82370   0.00520   Biso      1.000     H          0.118183  
         H36       1.0000    0.05560   0.46420   0.12230   Biso      1.000     H          0.114169  
         H37       1.0000    0.12260   0.42930   0.20740   Biso      1.000     H          0.117525  
         H38       1.0000    0.82640   0.34230   0.24200   Biso      1.000     H          0.112943  
         H39       1.0000    0.42380   0.33600   0.11340   Biso      1.000     H          0.111981  
         H40       1.0000    0.38260   0.04360   0.22940   Biso      1.000     H          0.12155   
         H41       1.0000    0.71510   0.11750   0.19560   Biso      1.000     H          0.106602  
         H42       1.0000    0.96630   0.15950   0.33590   Biso      1.000     H          0.113027  
         H43       1.0000    0.92060   0.29470   0.58470   Biso      1.000     H          0.107223  
         H44       1.0000    0.88090   0.41630   0.61530   Biso      1.000     H          0.116382  
         H45       1.0000    0.52040   0.48560   0.58680   Biso      1.000     H          0.116935  
         H46       1.0000    0.05560   0.03580   0.62230   Biso      1.000     H          0.11417000000000001           
         H47       1.0000    0.82640   0.15770   0.74200   Biso      1.000     H          0.112982  
         H48       1.0000    0.35270   0.03380   0.31570   Biso      1.000     H          0.09615800000000001           
         La1       1.0000    0.85220   0.89441   0.52222   Biso      1.000     La          2.000578  
         La2       1.0000    0.85220   0.60559   0.02222   Biso      1.000     La          2.000629  
         La3       1.0000    0.14780   0.10559   0.47778   Biso      1.000     La          2.0005740000000003  
         La4       1.0000    0.14780   0.39441   0.97778   Biso      1.000     La          2.000628  
         N1        1.0000    0.88600   0.69210   0.30750   Biso      1.000     N          -0.140377           
         N2        1.0000    0.58700   0.77810   0.24640   Biso      1.000     N          -0.128955           
         N3        1.0000    0.76600   0.73110   0.22880   Biso      1.000     N          -0.167829           
         N4        1.0000    0.95900   0.93510   0.02090   Biso      1.000     N          -0.146778           
         N5        1.0000    0.85300   0.02320   0.96030   Biso      1.000     N          -0.145252           
         N6        1.0000    0.11400   0.19210   0.19250   Biso      1.000     N          -0.14035799999999998          
         N7        1.0000    0.27600   0.23650   0.17300   Biso      1.000     N          -0.11744600000000001          
         N8        1.0000    0.41300   0.27810   0.25360   Biso      1.000     N          -0.128984           
         N9        1.0000    0.23400   0.23110   0.27120   Biso      1.000     N          -0.167848           
         N10       1.0000    0.04100   0.43510   0.47910   Biso      1.000     N          -0.14674700000000002          
         N11       1.0000    0.14700   0.52320   0.53970   Biso      1.000     N          -0.14522100000000002          
         N12       1.0000    0.72400   0.73650   0.32700   Biso      1.000     N          -0.11747  
         N13       1.0000    0.27600   0.26350   0.67300   Biso      1.000     N          -0.117505           
         N14       1.0000    0.11400   0.30790   0.69250   Biso      1.000     N          -0.140322           
         N15       1.0000    0.95900   0.56490   0.52090   Biso      1.000     N          -0.146716           
         N16       1.0000    0.76600   0.76890   0.72880   Biso      1.000     N          -0.167875           
         N17       1.0000    0.58700   0.72190   0.74640   Biso      1.000     N          -0.128957           
         N18       1.0000    0.72400   0.76350   0.82700   Biso      1.000     N          -0.11748900000000001          
         N19       1.0000    0.85300   0.47680   0.46030   Biso      1.000     N          -0.14518  
         N20       1.0000    0.14700   0.97680   0.03970   Biso      1.000     N          -0.145214           
         N21       1.0000    0.04100   0.06490   0.97910   Biso      1.000     N          -0.146748           
         N22       1.0000    0.23400   0.26890   0.77120   Biso      1.000     N          -0.16784200000000002          
         N23       1.0000    0.41300   0.22190   0.75360   Biso      1.000     N          -0.128928           
         N24       1.0000    0.88600   0.80790   0.80750   Biso      1.000     N          -0.140316           
         O1        1.0000    0.18900   0.59600   0.08360   Biso      1.000     O          -0.695178           
         O2        1.0000    0.48700   0.19890   0.48900   Biso      1.000     O          -0.6931189999999999           
         O3        1.0000    0.61200   0.58510   0.09840   Biso      1.000     O          -0.576125           
         O4        1.0000    0.12000   0.69340   0.97780   Biso      1.000     O          -0.60653  
         O5        1.0000    0.51300   0.69890   0.01100   Biso      1.000     O          -0.693149           
         O6        1.0000    0.85400   0.46660   0.03700   Biso      1.000     O          -0.71737  
         O7        1.0000    0.44100   0.43340   0.04480   Biso      1.000     O          -0.587651           
         O8        1.0000    0.81100   0.09600   0.41640   Biso      1.000     O          -0.695183           
         O9        1.0000    0.38800   0.08510   0.40160   Biso      1.000     O          -0.576121           
         O10       1.0000    0.88000   0.19340   0.52220   Biso      1.000     O          -0.606513           
         O11       1.0000    0.85400   0.03340   0.53700   Biso      1.000     O          -0.717359           
         O12       1.0000    0.14600   0.53340   0.96300   Biso      1.000     O          -0.717368           
         O13       1.0000    0.81100   0.40400   0.91640   Biso      1.000     O          -0.69518  
         O14       1.0000    0.38800   0.41490   0.90160   Biso      1.000     O          -0.576124           
         O15       1.0000    0.88000   0.30660   0.02220   Biso      1.000     O          -0.606529           
         O16       1.0000    0.48700   0.30110   0.98900   Biso      1.000     O          -0.693148           
         O17       1.0000    0.55900   0.56660   0.95520   Biso      1.000     O          -0.587648           
         O18       1.0000    0.18900   0.90400   0.58360   Biso      1.000     O          -0.695182           
         O19       1.0000    0.61200   0.91490   0.59840   Biso      1.000     O          -0.5761229999999999           
         O20       1.0000    0.12000   0.80660   0.47780   Biso      1.000     O          -0.606511           
         O21       1.0000    0.51300   0.80110   0.51100   Biso      1.000     O          -0.693125           
         O22       1.0000    0.55900   0.93340   0.45520   Biso      1.000     O          -0.587648           
         O23       1.0000    0.44100   0.06660   0.54480   Biso      1.000     O          -0.587646           
         O24       1.0000    0.14600   0.96660   0.46300   Biso      1.000     O          -0.7173609999999999 