
##########################################################################
#               Crystallographic Information Format file
#               Produced by PyCifRW module
#
#  This is a CIF file.  CIF has been adopted by the International
#  Union of Crystallography as the standard for data archiving and
#  transmission.
#
#  For information on this file format, follow the CIF links at
#  http://www.iucr.org
##########################################################################

data_image0

_cell_length_a                          6.9997
_cell_length_b                          16.0597
_cell_length_c                          16.0597
_cell_angle_alpha                       62.0735
_cell_angle_beta                        81.6462
_cell_angle_gamma                       98.3538
_symmetry_space_group_name_H-M          'P 1'
_symmetry_int_tables_number             1
loop_
  _symmetry_equiv_pos_as_xyz
         'x, y, z' 
loop_
  _atom_site_label
  _atom_site_occupancy
  _atom_site_fract_x
  _atom_site_fract_y
  _atom_site_fract_z
  _atom_site_thermal_displace_type
  _atom_site_B_iso_or_equiv
  _atom_site_type_symbol
  _atom_site_charge
         C1        1.0000    0.35510   0.90840   0.70340   Biso      1.000     C          0.12601199999999999           
         C2        1.0000    0.88130   0.02700   0.24520   Biso      1.000     C          0.46773400000000004           
         C3        1.0000    0.64490   0.09160   0.29660   Biso      1.000     C          0.12601199999999999           
         C4        1.0000    0.12880   0.96620   0.35390   Biso      1.000     C          0.586932  
         C5        1.0000    0.71490   0.07360   0.37790   Biso      1.000     C          -0.024583           
         C6        1.0000    0.95700   0.01090   0.32750   Biso      1.000     C          -0.06891599999999999          
         C7        1.0000    0.85430   0.72780   0.02700   Biso      1.000     C          0.468033  
         C8        1.0000    0.55330   0.61180   0.09160   Biso      1.000     C          0.125005  
         C9        1.0000    0.16260   0.67990   0.96620   Biso      1.000     C          0.586716  
         C10       1.0000    0.64130   0.54850   0.07360   Biso      1.000     C          -0.023683000000000003         
         C11       1.0000    0.94610   0.66160   0.01090   Biso      1.000     C          -0.068844           
         C12       1.0000    0.48270   0.35390   0.67990   Biso      1.000     C          0.586549  
         C13       1.0000    0.94150   0.29660   0.61180   Biso      1.000     C          0.12962   
         C14       1.0000    0.12650   0.24520   0.72780   Biso      1.000     C          0.471038  
         C15       1.0000    0.05390   0.33840   0.98910   Biso      1.000     C          -0.068846           
         C16       1.0000    0.28450   0.32750   0.66160   Biso      1.000     C          -0.06980800000000001          
         C17       1.0000    0.35870   0.45150   0.92640   Biso      1.000     C          -0.023688           
         C18       1.0000    0.44670   0.38820   0.90840   Biso      1.000     C          0.12500999999999998           
         C19       1.0000    0.14570   0.27220   0.97300   Biso      1.000     C          0.468034  
         C20       1.0000    0.04300   0.98910   0.67250   Biso      1.000     C          -0.06891599999999999          
         C21       1.0000    0.28510   0.92640   0.62210   Biso      1.000     C          -0.024582           
         C22       1.0000    0.87120   0.03380   0.64610   Biso      1.000     C          0.586932  
         C23       1.0000    0.11870   0.97300   0.75480   Biso      1.000     C          0.467735  
         C24       1.0000    0.71550   0.67250   0.33840   Biso      1.000     C          -0.06980599999999999          
         C25       1.0000    0.90720   0.62210   0.45150   Biso      1.000     C          -0.024883000000000002         
         C26       1.0000    0.51730   0.64610   0.32010   Biso      1.000     C          0.586549  
         C27       1.0000    0.05850   0.70340   0.38820   Biso      1.000     C          0.129624  
         C28       1.0000    0.87350   0.75480   0.27220   Biso      1.000     C          0.471038  
         C29       1.0000    0.83740   0.32010   0.03380   Biso      1.000     C          0.5867180000000001  
         C30       1.0000    0.09280   0.37790   0.54850   Biso      1.000     C          -0.024881           
         Cu1       1.0000    0.50000   0.50000   0.50000   Biso      1.000     Cu          0.658695  
         Cu2       1.0000    0.00000   0.00000   0.50000   Biso      1.000     Cu          0.658161  
         Cu3       1.0000    0.00000   0.50000   0.00000   Biso      1.000     Cu          0.657229  
         Gd1       1.0000    0.27787   0.91304   0.93372   Biso      1.000     Gd          1.961071  
         Gd2       1.0000    0.36483   0.15324   0.91304   Biso      1.000     Gd          1.960084  
         Gd3       1.0000    0.72213   0.08696   0.06628   Biso      1.000     Gd          1.961073  
         Gd4       1.0000    0.78841   0.06628   0.84676   Biso      1.000     Gd          1.961569  
         Gd5       1.0000    0.63517   0.84676   0.08696   Biso      1.000     Gd          1.960089  
         Gd6       1.0000    0.21159   0.93372   0.15324   Biso      1.000     Gd          1.961573  
         H1        1.0000    0.92250   0.57730   0.51170   Biso      1.000     H          0.11373   
         H2        1.0000    0.56580   0.48830   0.08900   Biso      1.000     H          0.113524  
         H3        1.0000    0.41740   0.59340   0.11970   Biso      1.000     H          0.109597  
         H4        1.0000    0.65480   0.08900   0.42270   Biso      1.000     H          0.113949  
         H5        1.0000    0.07750   0.42270   0.48830   Biso      1.000     H          0.113729  
         H6        1.0000    0.82400   0.28690   0.59340   Biso      1.000     H          0.107974  
         H7        1.0000    0.43420   0.51170   0.91100   Biso      1.000     H          0.113524  
         H8        1.0000    0.58260   0.40660   0.88030   Biso      1.000     H          0.109596  
         H9        1.0000    0.34520   0.91100   0.57730   Biso      1.000     H          0.113949  
         H10       1.0000    0.46290   0.88030   0.71310   Biso      1.000     H          0.109051  
         H11       1.0000    0.53710   0.11970   0.28690   Biso      1.000     H          0.109051  
         H12       1.0000    0.17600   0.71310   0.40660   Biso      1.000     H          0.107975  
         N1        1.0000    0.12950   0.96620   0.60850   Biso      1.000     N          -0.197501           
         N2        1.0000    0.04050   0.76730   0.30270   Biso      1.000     N          -0.371106           
         N3        1.0000    0.34320   0.30270   0.93000   Biso      1.000     N          -0.367595           
         N4        1.0000    0.27320   0.93000   0.76730   Biso      1.000     N          -0.367492           
         N5        1.0000    0.16330   0.42530   0.96620   Biso      1.000     N          -0.197012           
         N6        1.0000    0.73800   0.60850   0.42530   Biso      1.000     N          -0.19736800000000002          
         N7        1.0000    0.26200   0.39150   0.57470   Biso      1.000     N          -0.19736800000000002          
         N8        1.0000    0.72680   0.07000   0.23270   Biso      1.000     N          -0.367494           
         N9        1.0000    0.87050   0.03380   0.39150   Biso      1.000     N          -0.197501           
         N10       1.0000    0.65680   0.69730   0.07000   Biso      1.000     N          -0.367593           
         N11       1.0000    0.83670   0.57470   0.03380   Biso      1.000     N          -0.19701300000000002          
         N12       1.0000    0.95950   0.23270   0.69730   Biso      1.000     N          -0.371106           
         O1        1.0000    0.78470   0.38670   0.04520   Biso      1.000     O          -0.5410729999999999           
         O2        1.0000    0.70810   0.17800   0.90160   Biso      1.000     O          -0.927406           
         O3        1.0000    0.05090   0.99380   0.81880   Biso      1.000     O          -0.622783           
         O4        1.0000    0.77630   0.05550   0.70110   Biso      1.000     O          -0.546038           
         O5        1.0000    0.82990   0.04520   0.56810   Biso      1.000     O          -0.5407069999999999           
         O6        1.0000    0.47740   0.70110   0.24340   Biso      1.000     O          -0.5458029999999999           
         O7        1.0000    0.86970   0.81880   0.18740   Biso      1.000     O          -0.623971           
         O8        1.0000    0.39800   0.56810   0.38670   Biso      1.000     O          -0.540569           
         O9        1.0000    0.53010   0.92040   0.17800   Biso      1.000     O          -0.927696           
         O10       1.0000    0.50000   0.00000   0.00000   Biso      1.000     O          -0.722499           
         O11       1.0000    0.60970   0.90160   0.92040   Biso      1.000     O          -0.927802           
         O12       1.0000    0.72080   0.24340   0.05550   Biso      1.000     O          -0.5459069999999999           
         O13       1.0000    0.60200   0.43190   0.61330   Biso      1.000     O          -0.540569           
         O14       1.0000    0.46990   0.07960   0.82200   Biso      1.000     O          -0.927689           
         O15       1.0000    0.52260   0.29890   0.75660   Biso      1.000     O          -0.545802           
         O16       1.0000    0.13030   0.18120   0.81260   Biso      1.000     O          -0.623972           
         O17       1.0000    0.39030   0.09840   0.07960   Biso      1.000     O          -0.927803           
         O18       1.0000    0.17010   0.95480   0.43190   Biso      1.000     O          -0.5407069999999999           
         O19       1.0000    0.22370   0.94450   0.29890   Biso      1.000     O          -0.546038           
         O20       1.0000    0.94910   0.00620   0.18120   Biso      1.000     O          -0.622784           
         O21       1.0000    0.29190   0.82200   0.09840   Biso      1.000     O          -0.9274190000000001           
         O22       1.0000    0.21530   0.61330   0.95480   Biso      1.000     O          -0.541072           
         O23       1.0000    0.27920   0.75660   0.94450   Biso      1.000     O          -0.5459069999999999           
         O24       1.0000    0.94290   0.81260   0.00620   Biso      1.000     O          -0.622688           
         O25       1.0000    0.17533   0.00000   0.00000   Biso      1.000     O          -0.83275  
         O26       1.0000    0.05710   0.18740   0.99380   Biso      1.000     O          -0.622689           
         O27       1.0000    0.82467   0.00000   0.00000   Biso      1.000     O          -0.8327540000000001 