
##########################################################################
#               Crystallographic Information Format file
#               Produced by PyCifRW module
#
#  This is a CIF file.  CIF has been adopted by the International
#  Union of Crystallography as the standard for data archiving and
#  transmission.
#
#  For information on this file format, follow the CIF links at
#  http://www.iucr.org
##########################################################################

data_image0

_cell_length_a                          8.655
_cell_length_b                          9.9366
_cell_length_c                          11.717
_cell_angle_alpha                       74.71
_cell_angle_beta                        69.795
_cell_angle_gamma                       85.959
_symmetry_space_group_name_H-M          'P 1'
_symmetry_int_tables_number             1
loop_
  _symmetry_equiv_pos_as_xyz
         'x, y, z' 
loop_
  _atom_site_label
  _atom_site_occupancy
  _atom_site_fract_x
  _atom_site_fract_y
  _atom_site_fract_z
  _atom_site_thermal_displace_type
  _atom_site_B_iso_or_equiv
  _atom_site_type_symbol
  _atom_site_charge
         C1        1.0000    0.18990   0.89700   0.69720   Biso      1.000     C          -0.351505           
         C2        1.0000    0.04460   0.91560   0.80680   Biso      1.000     C          0.699617  
         C3        1.0000    0.15500   0.88530   0.58290   Biso      1.000     C          -0.14839  
         C4        1.0000    0.31090   0.88940   0.47200   Biso      1.000     C          -0.150389           
         C5        1.0000    0.28290   0.88820   0.35120   Biso      1.000     C          -0.345613           
         C6        1.0000    0.56440   0.08730   0.76330   Biso      1.000     C          0.710978  
         C7        1.0000    0.76220   0.67150   0.09280   Biso      1.000     C          0.680285  
         C8        1.0000    0.78940   0.51660   0.12740   Biso      1.000     C          -0.334503           
         C9        1.0000    0.95540   0.08440   0.19320   Biso      1.000     C          0.699617  
         C10       1.0000    0.96720   0.47840   0.07130   Biso      1.000     C          -0.156529           
         C11       1.0000    0.84500   0.11470   0.41710   Biso      1.000     C          -0.148391           
         C12       1.0000    0.68910   0.11060   0.52800   Biso      1.000     C          -0.150389           
         C13       1.0000    0.71710   0.11180   0.64880   Biso      1.000     C          -0.345613           
         C14       1.0000    0.43560   0.91270   0.23670   Biso      1.000     C          0.710978  
         C15       1.0000    0.23780   0.32850   0.90720   Biso      1.000     C          0.680285  
         C16       1.0000    0.21060   0.48340   0.87260   Biso      1.000     C          -0.334503           
         C17       1.0000    0.03280   0.52160   0.92870   Biso      1.000     C          -0.156529           
         C18       1.0000    0.81010   0.10300   0.30280   Biso      1.000     C          -0.351505           
         H1        1.0000    0.96510   0.47750   0.89730   Biso      1.000     H          0.099108  
         H2        1.0000    0.02330   0.62180   0.90060   Biso      1.000     H          0.09656   
         H3        1.0000    0.24510   0.51670   0.78170   Biso      1.000     H          0.136163  
         H4        1.0000    0.27910   0.53040   0.90120   Biso      1.000     H          0.128581  
         H5        1.0000    0.79550   0.04050   0.66350   Biso      1.000     H          0.140996  
         H6        1.0000    0.26560   0.97540   0.67210   Biso      1.000     H          0.145699  
         H7        1.0000    0.24580   0.81350   0.72540   Biso      1.000     H          0.141579  
         H8        1.0000    0.09510   0.79840   0.60280   Biso      1.000     H          0.099926  
         H9        1.0000    0.08570   0.96140   0.56040   Biso      1.000     H          0.095425  
         H10       1.0000    0.37420   0.97290   0.45710   Biso      1.000     H          0.09856   
         H11       1.0000    0.37620   0.80960   0.49340   Biso      1.000     H          0.098818  
         H12       1.0000    0.20450   0.95950   0.33650   Biso      1.000     H          0.140996  
         H13       1.0000    0.23380   0.79870   0.36240   Biso      1.000     H          0.146174  
         H14       1.0000    0.76620   0.20130   0.63760   Biso      1.000     H          0.146174  
         H15       1.0000    0.72090   0.46960   0.09880   Biso      1.000     H          0.128581  
         H16       1.0000    0.75490   0.48330   0.21830   Biso      1.000     H          0.136163  
         H17       1.0000    0.97670   0.37820   0.09940   Biso      1.000     H          0.09656   
         H18       1.0000    0.73440   0.02460   0.32790   Biso      1.000     H          0.145699  
         H19       1.0000    0.75420   0.18650   0.27460   Biso      1.000     H          0.141579  
         H20       1.0000    0.90490   0.20160   0.39720   Biso      1.000     H          0.099926  
         H21       1.0000    0.91430   0.03860   0.43960   Biso      1.000     H          0.095425  
         H22       1.0000    0.62580   0.02710   0.54290   Biso      1.000     H          0.098561  
         H23       1.0000    0.62380   0.19040   0.50660   Biso      1.000     H          0.098818  
         H24       1.0000    0.03490   0.52250   0.10270   Biso      1.000     H          0.099108  
         O1        1.0000    0.13750   0.24700   0.90170   Biso      1.000     O          -0.668769           
         O2        1.0000    0.06810   0.96470   0.88908   Biso      1.000     O          -0.768234           
         O3        1.0000    0.35840   0.28140   0.94090   Biso      1.000     O          -0.660358           
         O4        1.0000    0.42490   0.10730   0.75320   Biso      1.000     O          -0.60106  
         O5        1.0000    0.42230   0.95520   0.12788   Biso      1.000     O          -0.795748           
         O6        1.0000    0.90060   0.88360   0.81880   Biso      1.000     O          -0.609857           
         O7        1.0000    0.93190   0.03530   0.11092   Biso      1.000     O          -0.768234           
         O8        1.0000    0.86250   0.75300   0.09830   Biso      1.000     O          -0.668769           
         O9        1.0000    0.57510   0.89270   0.24680   Biso      1.000     O          -0.60106  
         O10       1.0000    0.57770   0.04480   0.87212   Biso      1.000     O          -0.795748           
         O11       1.0000    0.09940   0.11640   0.18120   Biso      1.000     O          -0.609857           
         O12       1.0000    0.64160   0.71860   0.05910   Biso      1.000     O          -0.660358           
         Pr1       1.0000    0.25445   0.02239   0.98808   Biso      1.000     Pr          2.072488  
         Pr2       1.0000    0.74555   0.97761   0.01192   Biso      1.000     Pr          2.072488 