
##########################################################################
#               Crystallographic Information Format file
#               Produced by PyCifRW module
#
#  This is a CIF file.  CIF has been adopted by the International
#  Union of Crystallography as the standard for data archiving and
#  transmission.
#
#  For information on this file format, follow the CIF links at
#  http://www.iucr.org
##########################################################################

data_image0

_cell_length_a                          13.3815
_cell_length_b                          17.7647
_cell_length_c                          17.7647
_cell_angle_alpha                       90
_cell_angle_beta                        90
_cell_angle_gamma                       90
_symmetry_space_group_name_H-M          'P 1'
_symmetry_int_tables_number             1
loop_
  _symmetry_equiv_pos_as_xyz
         'x, y, z' 
loop_
  _atom_site_label
  _atom_site_occupancy
  _atom_site_fract_x
  _atom_site_fract_y
  _atom_site_fract_z
  _atom_site_thermal_displace_type
  _atom_site_B_iso_or_equiv
  _atom_site_type_symbol
  _atom_site_charge
         Ba1       1.0000    0.17793   0.13588   0.61427   Biso      1.000     Ba          1.496222  
         Ba2       1.0000    0.67793   0.86412   0.38573   Biso      1.000     Ba          1.496222  
         Ba3       1.0000    0.42793   0.88573   0.63588   Biso      1.000     Ba          1.496222  
         Ba4       1.0000    0.92793   0.11427   0.36412   Biso      1.000     Ba          1.496222  
         Ba5       1.0000    0.07207   0.36412   0.11427   Biso      1.000     Ba          1.496222  
         Ba6       1.0000    0.57207   0.63588   0.88573   Biso      1.000     Ba          1.496222  
         Ba7       1.0000    0.82207   0.61427   0.13588   Biso      1.000     Ba          1.496222  
         Ba8       1.0000    0.32207   0.38573   0.86412   Biso      1.000     Ba          1.496222  
         C1        1.0000    0.11170   0.89530   0.15370   Biso      1.000     C          -0.090954           
         C2        1.0000    0.02710   0.01580   0.18670   Biso      1.000     C          0.588815  
         C3        1.0000    0.89270   0.76920   0.27450   Biso      1.000     C          0.6258729999999999  
         C4        1.0000    0.96420   0.19120   0.93250   Biso      1.000     C          -0.018915           
         C5        1.0000    0.88070   0.15650   0.81660   Biso      1.000     C          -0.086399           
         C6        1.0000    0.03040   0.23330   0.81270   Biso      1.000     C          -0.043483999999999995         
         C7        1.0000    0.95250   0.19580   0.77570   Biso      1.000     C          -0.103487           
         C8        1.0000    0.11930   0.81660   0.15650   Biso      1.000     C          -0.086398           
         C9        1.0000    0.03450   0.23180   0.89060   Biso      1.000     C          -0.13979  
         C10       1.0000    0.04750   0.77570   0.19580   Biso      1.000     C          -0.103487           
         C11       1.0000    0.39270   0.23080   0.72550   Biso      1.000     C          0.6258729999999999  
         C12       1.0000    0.96550   0.89060   0.23180   Biso      1.000     C          -0.13979  
         C13       1.0000    0.03580   0.93250   0.19120   Biso      1.000     C          -0.018913           
         C14       1.0000    0.88830   0.15370   0.89530   Biso      1.000     C          -0.090951           
         C15       1.0000    0.52710   0.98420   0.81330   Biso      1.000     C          0.588815  
         C16       1.0000    0.61170   0.10470   0.84630   Biso      1.000     C          -0.090954           
         C17       1.0000    0.61930   0.18340   0.84350   Biso      1.000     C          -0.086398           
         C18       1.0000    0.54750   0.22430   0.80420   Biso      1.000     C          -0.103487           
         C19       1.0000    0.46960   0.18730   0.76670   Biso      1.000     C          -0.043483999999999995         
         C20       1.0000    0.46550   0.10940   0.76820   Biso      1.000     C          -0.13979  
         C21       1.0000    0.53580   0.06750   0.80880   Biso      1.000     C          -0.018913           
         C22       1.0000    0.96960   0.81270   0.23330   Biso      1.000     C          -0.043483           
         C23       1.0000    0.97290   0.18670   0.01580   Biso      1.000     C          0.588815  
         C24       1.0000    0.45250   0.80420   0.22430   Biso      1.000     C          -0.103487           
         C25       1.0000    0.46420   0.80880   0.06750   Biso      1.000     C          -0.018915           
         C26       1.0000    0.35730   0.73080   0.77450   Biso      1.000     C          0.6258729999999999  
         C27       1.0000    0.22290   0.48420   0.68670   Biso      1.000     C          0.588815  
         C28       1.0000    0.13830   0.60470   0.65370   Biso      1.000     C          -0.090954           
         C29       1.0000    0.13070   0.68340   0.65650   Biso      1.000     C          -0.086398           
         C30       1.0000    0.20250   0.72430   0.69580   Biso      1.000     C          -0.103487           
         C31       1.0000    0.28040   0.68730   0.73330   Biso      1.000     C          -0.043483999999999995         
         C32       1.0000    0.28450   0.60940   0.73180   Biso      1.000     C          -0.13979  
         C33       1.0000    0.21420   0.56750   0.69120   Biso      1.000     C          -0.018913           
         C34       1.0000    0.85730   0.26920   0.22550   Biso      1.000     C          0.6258729999999999  
         C35       1.0000    0.72290   0.51580   0.31330   Biso      1.000     C          0.588815  
         C36       1.0000    0.10730   0.27450   0.76920   Biso      1.000     C          0.6258729999999999  
         C37       1.0000    0.63830   0.39530   0.34630   Biso      1.000     C          -0.090954           
         C38       1.0000    0.70250   0.27570   0.30420   Biso      1.000     C          -0.103487           
         C39       1.0000    0.78040   0.31270   0.26670   Biso      1.000     C          -0.043483999999999995         
         C40       1.0000    0.78450   0.39060   0.26820   Biso      1.000     C          -0.13979  
         C41       1.0000    0.71420   0.43250   0.30880   Biso      1.000     C          -0.018913           
         C42       1.0000    0.60730   0.72550   0.23080   Biso      1.000     C          0.6258729999999999  
         C43       1.0000    0.47290   0.81330   0.98420   Biso      1.000     C          0.588815  
         C44       1.0000    0.38830   0.84630   0.10470   Biso      1.000     C          -0.090952           
         C45       1.0000    0.38070   0.84350   0.18340   Biso      1.000     C          -0.086398           
         C46       1.0000    0.64270   0.77450   0.73080   Biso      1.000     C          0.6258729999999999  
         C47       1.0000    0.53040   0.76670   0.18730   Biso      1.000     C          -0.043483999999999995         
         C48       1.0000    0.63070   0.31660   0.34350   Biso      1.000     C          -0.086398           
         C49       1.0000    0.77710   0.68670   0.48420   Biso      1.000     C          0.588815  
         C50       1.0000    0.53450   0.76820   0.10940   Biso      1.000     C          -0.13979  
         C51       1.0000    0.86930   0.65650   0.68340   Biso      1.000     C          -0.086399           
         C52       1.0000    0.79750   0.69580   0.72430   Biso      1.000     C          -0.103487           
         C53       1.0000    0.71960   0.73330   0.68730   Biso      1.000     C          -0.043483999999999995         
         C54       1.0000    0.71550   0.73180   0.60940   Biso      1.000     C          -0.13979  
         C55       1.0000    0.78580   0.69120   0.56750   Biso      1.000     C          -0.018915           
         C56       1.0000    0.14270   0.22550   0.26920   Biso      1.000     C          0.6258729999999999  
         C57       1.0000    0.27710   0.31330   0.51580   Biso      1.000     C          0.588815  
         C58       1.0000    0.36170   0.34630   0.39530   Biso      1.000     C          -0.090954           
         C59       1.0000    0.36930   0.34350   0.31660   Biso      1.000     C          -0.086398           
         C60       1.0000    0.29750   0.30420   0.27570   Biso      1.000     C          -0.103487           
         C61       1.0000    0.21960   0.26670   0.31270   Biso      1.000     C          -0.043483           
         C62       1.0000    0.21550   0.26820   0.39060   Biso      1.000     C          -0.13979  
         C63       1.0000    0.28580   0.30880   0.43250   Biso      1.000     C          -0.018913           
         C64       1.0000    0.86170   0.65370   0.60470   Biso      1.000     C          -0.090951           
         Cd1       1.0000    0.00000   0.16568   0.16568   Biso      1.000     Cd          0.957198  
         Cd2       1.0000    0.50000   0.83432   0.83432   Biso      1.000     Cd          0.957198  
         Cd3       1.0000    0.75000   0.66568   0.33432   Biso      1.000     Cd          0.957198  
         Cd4       1.0000    0.25000   0.33432   0.66568   Biso      1.000     Cd          0.957198  
         H1        1.0000    0.16520   0.24190   0.41540   Biso      1.000     H          0.113678  
         H2        1.0000    0.30120   0.30290   0.22340   Biso      1.000     H          0.115297  
         H3        1.0000    0.42170   0.36760   0.29210   Biso      1.000     H          0.116227  
         H4        1.0000    0.40830   0.37370   0.42280   Biso      1.000     H          0.122353  
         H5        1.0000    0.66520   0.75810   0.58460   Biso      1.000     H          0.113678  
         H6        1.0000    0.80120   0.69710   0.77660   Biso      1.000     H          0.115297  
         H7        1.0000    0.92170   0.63240   0.70790   Biso      1.000     H          0.116227  
         H8        1.0000    0.90830   0.62630   0.57720   Biso      1.000     H          0.122353  
         H9        1.0000    0.41520   0.08460   0.74190   Biso      1.000     H          0.113678  
         H10       1.0000    0.55120   0.27660   0.80290   Biso      1.000     H          0.11529600000000001           
         H11       1.0000    0.67170   0.20790   0.86760   Biso      1.000     H          0.116227  
         H12       1.0000    0.65830   0.07720   0.87370   Biso      1.000     H          0.122353  
         H13       1.0000    0.91520   0.91540   0.25810   Biso      1.000     H          0.113678  
         H14       1.0000    0.05120   0.72340   0.19710   Biso      1.000     H          0.11529600000000001           
         H15       1.0000    0.82830   0.13240   0.79210   Biso      1.000     H          0.116227  
         H16       1.0000    0.15830   0.92280   0.12630   Biso      1.000     H          0.122353  
         H17       1.0000    0.09170   0.57720   0.62630   Biso      1.000     H          0.122353  
         H18       1.0000    0.07830   0.70790   0.63240   Biso      1.000     H          0.116227  
         H19       1.0000    0.19880   0.77660   0.69710   Biso      1.000     H          0.11529600000000001           
         H20       1.0000    0.33480   0.58460   0.75810   Biso      1.000     H          0.113678  
         H21       1.0000    0.59170   0.42280   0.37370   Biso      1.000     H          0.122353  
         H22       1.0000    0.57830   0.29210   0.36760   Biso      1.000     H          0.116227  
         H23       1.0000    0.69880   0.22340   0.30290   Biso      1.000     H          0.11529600000000001           
         H24       1.0000    0.83480   0.41540   0.24190   Biso      1.000     H          0.113678  
         H25       1.0000    0.34170   0.87370   0.07720   Biso      1.000     H          0.122353  
         H26       1.0000    0.32830   0.86760   0.20790   Biso      1.000     H          0.116227  
         H27       1.0000    0.44880   0.80290   0.27660   Biso      1.000     H          0.115297  
         H28       1.0000    0.58480   0.74190   0.08460   Biso      1.000     H          0.113678  
         H29       1.0000    0.84170   0.12630   0.92280   Biso      1.000     H          0.122353  
         H30       1.0000    0.94880   0.19710   0.72340   Biso      1.000     H          0.115297  
         H31       1.0000    0.08480   0.25810   0.91540   Biso      1.000     H          0.113678  
         H32       1.0000    0.17170   0.79210   0.13240   Biso      1.000     H          0.116227  
         N1        1.0000    0.79460   0.60290   0.95190   Biso      1.000     N          0.780176  
         N2        1.0000    0.54460   0.45190   0.89710   Biso      1.000     N          0.780176  
         N3        1.0000    0.29460   0.39710   0.04810   Biso      1.000     N          0.780176  
         N4        1.0000    0.04460   0.54810   0.10290   Biso      1.000     N          0.780176  
         N5        1.0000    0.20540   0.95190   0.60290   Biso      1.000     N          0.780176  
         N6        1.0000    0.45540   0.89710   0.45190   Biso      1.000     N          0.780176  
         N7        1.0000    0.95540   0.10290   0.54810   Biso      1.000     N          0.780176  
         N8        1.0000    0.70540   0.04810   0.39710   Biso      1.000     N          0.780176  
         O1        1.0000    0.22450   0.37400   0.00600   Biso      1.000     O          -0.592303           
         O2        1.0000    0.28430   0.39490   0.11690   Biso      1.000     O          -0.448362           
         O3        1.0000    0.36980   0.42350   0.01820   Biso      1.000     O          -0.469496           
         O4        1.0000    0.04190   0.22270   0.04770   Biso      1.000     O          -0.643161           
         O5        1.0000    0.91260   0.14680   0.05210   Biso      1.000     O          -0.536853           
         O6        1.0000    0.16240   0.32070   0.80170   Biso      1.000     O          -0.6448729999999999           
         O7        1.0000    0.11570   0.26040   0.69900   Biso      1.000     O          -0.619164           
         O8        1.0000    0.72450   0.62600   0.99400   Biso      1.000     O          -0.592303           
         O9        1.0000    0.78430   0.60510   0.88310   Biso      1.000     O          -0.448362           
         O10       1.0000    0.86980   0.57650   0.98180   Biso      1.000     O          -0.469496           
         O11       1.0000    0.54190   0.77730   0.95230   Biso      1.000     O          -0.643161           
         O12       1.0000    0.41260   0.85320   0.94790   Biso      1.000     O          -0.536853           
         O13       1.0000    0.61570   0.73960   0.30100   Biso      1.000     O          -0.619164           
         O14       1.0000    0.97450   0.50600   0.12600   Biso      1.000     O          -0.592303           
         O15       1.0000    0.03430   0.61690   0.10510   Biso      1.000     O          -0.448362           
         O16       1.0000    0.11980   0.51820   0.07650   Biso      1.000     O          -0.469496           
         O17       1.0000    0.79190   0.54770   0.27730   Biso      1.000     O          -0.643161           
         O18       1.0000    0.66260   0.55210   0.35320   Biso      1.000     O          -0.536853           
         O19       1.0000    0.91240   0.30170   0.17930   Biso      1.000     O          -0.6448729999999999           
         O20       1.0000    0.86570   0.19900   0.23960   Biso      1.000     O          -0.619164           
         O21       1.0000    0.47450   0.49400   0.87400   Biso      1.000     O          -0.592303           
         O22       1.0000    0.53430   0.38310   0.89490   Biso      1.000     O          -0.448362           
         O23       1.0000    0.61980   0.48180   0.92350   Biso      1.000     O          -0.469496           
         O24       1.0000    0.29190   0.45230   0.72270   Biso      1.000     O          -0.643161           
         O25       1.0000    0.16260   0.44790   0.64680   Biso      1.000     O          -0.536853           
         O26       1.0000    0.66240   0.67930   0.19830   Biso      1.000     O          -0.6448729999999999           
         O27       1.0000    0.88430   0.69900   0.26040   Biso      1.000     O          -0.619164           
         O28       1.0000    0.08740   0.05210   0.14680   Biso      1.000     O          -0.536853           
         O29       1.0000    0.95810   0.04770   0.22270   Biso      1.000     O          -0.643161           
         O30       1.0000    0.41240   0.69830   0.82070   Biso      1.000     O          -0.6448729999999999           
         O31       1.0000    0.02550   0.12600   0.50600   Biso      1.000     O          -0.592303           
         O32       1.0000    0.96570   0.10510   0.61690   Biso      1.000     O          -0.448362           
         O33       1.0000    0.88020   0.07650   0.51820   Biso      1.000     O          -0.469496           
         O34       1.0000    0.20810   0.27730   0.54770   Biso      1.000     O          -0.643161           
         O35       1.0000    0.33740   0.35320   0.55210   Biso      1.000     O          -0.536853           
         O36       1.0000    0.08760   0.17930   0.30170   Biso      1.000     O          -0.6448729999999999           
         O37       1.0000    0.13430   0.23960   0.19900   Biso      1.000     O          -0.619164           
         O38       1.0000    0.52550   0.87400   0.49400   Biso      1.000     O          -0.592303           
         O39       1.0000    0.46570   0.89490   0.38310   Biso      1.000     O          -0.448362           
         O40       1.0000    0.38020   0.92350   0.48180   Biso      1.000     O          -0.469496           
         O41       1.0000    0.70810   0.72270   0.45230   Biso      1.000     O          -0.643161           
         O42       1.0000    0.83740   0.64680   0.44790   Biso      1.000     O          -0.536853           
         O43       1.0000    0.58760   0.82070   0.69830   Biso      1.000     O          -0.6448729999999999           
         O44       1.0000    0.63430   0.76040   0.80100   Biso      1.000     O          -0.619164           
         O45       1.0000    0.27550   0.99400   0.62600   Biso      1.000     O          -0.592303           
         O46       1.0000    0.21570   0.88310   0.60510   Biso      1.000     O          -0.448362           
         O47       1.0000    0.13020   0.98180   0.57650   Biso      1.000     O          -0.469496           
         O48       1.0000    0.45810   0.95230   0.77730   Biso      1.000     O          -0.643161           
         O49       1.0000    0.58740   0.94790   0.85320   Biso      1.000     O          -0.536853           
         O50       1.0000    0.33760   0.19830   0.67930   Biso      1.000     O          -0.6448729999999999           
         O51       1.0000    0.38430   0.30100   0.73960   Biso      1.000     O          -0.619164           
         O52       1.0000    0.77550   0.00600   0.37400   Biso      1.000     O          -0.592303           
         O53       1.0000    0.71570   0.11690   0.39490   Biso      1.000     O          -0.448362           
         O54       1.0000    0.63020   0.01820   0.42350   Biso      1.000     O          -0.469496           
         O55       1.0000    0.83760   0.80170   0.32070   Biso      1.000     O          -0.6448729999999999           
         O56       1.0000    0.36570   0.80100   0.76040   Biso      1.000     O          -0.619164 