
##########################################################################
#               Crystallographic Information Format file
#               Produced by PyCifRW module
#
#  This is a CIF file.  CIF has been adopted by the International
#  Union of Crystallography as the standard for data archiving and
#  transmission.
#
#  For information on this file format, follow the CIF links at
#  http://www.iucr.org
##########################################################################

data_image0

_cell_length_a                          10.0704
_cell_length_b                          14.2521
_cell_length_c                          17.5644
_cell_angle_alpha                       90
_cell_angle_beta                        94.281
_cell_angle_gamma                       90
_symmetry_space_group_name_H-M          'P 1'
_symmetry_int_tables_number             1
loop_
  _symmetry_equiv_pos_as_xyz
         'x, y, z' 
loop_
  _atom_site_label
  _atom_site_occupancy
  _atom_site_fract_x
  _atom_site_fract_y
  _atom_site_fract_z
  _atom_site_thermal_displace_type
  _atom_site_B_iso_or_equiv
  _atom_site_type_symbol
  _atom_site_charge
         C1        1.0000    0.22330   0.68250   0.86371   Biso      1.000     C          0.647475  
         C2        1.0000    0.86760   0.73330   0.83513   Biso      1.000     C          0.628003  
         C3        1.0000    0.80860   0.79640   0.77532   Biso      1.000     C          -0.10276099999999999          
         C4        1.0000    0.60950   0.86698   0.58590   Biso      1.000     C          0.665702  
         C5        1.0000    0.68520   0.85692   0.66025   Biso      1.000     C          -0.14110999999999999          
         C6        1.0000    0.59070   0.44420   0.39355   Biso      1.000     C          0.6529    
         C7        1.0000    0.40930   0.55580   0.60645   Biso      1.000     C          0.6529    
         C8        1.0000    0.78320   0.82590   0.28884   Biso      1.000     C          -0.11455499999999999          
         C9        1.0000    0.31250   0.60800   0.27145   Biso      1.000     C          -0.10117999999999999          
         C10       1.0000    0.31420   0.74420   0.74140   Biso      1.000     C          -0.123591           
         C11       1.0000    0.36620   0.61580   0.66961   Biso      1.000     C          -0.13469  
         C12       1.0000    0.35930   0.71060   0.67230   Biso      1.000     C          -0.133543           
         C13       1.0000    0.28320   0.67410   0.78884   Biso      1.000     C          -0.11453900000000002          
         C14       1.0000    0.36760   0.76670   0.33513   Biso      1.000     C          0.628003  
         C15       1.0000    0.30860   0.70360   0.27532   Biso      1.000     C          -0.10276099999999999          
         C16       1.0000    0.24110   0.57290   0.20571   Biso      1.000     C          -0.099861           
         C17       1.0000    0.10950   0.63302   0.08590   Biso      1.000     C          0.665701  
         C18       1.0000    0.85930   0.78940   0.17230   Biso      1.000     C          -0.13356099999999999          
         C19       1.0000    0.81420   0.75580   0.24140   Biso      1.000     C          -0.123574           
         C20       1.0000    0.68750   0.39200   0.72855   Biso      1.000     C          -0.10117999999999999          
         C21       1.0000    0.75890   0.42710   0.79429   Biso      1.000     C          -0.099861           
         C22       1.0000    0.68580   0.25580   0.25860   Biso      1.000     C          -0.123591           
         C23       1.0000    0.63380   0.38420   0.33039   Biso      1.000     C          -0.13469  
         C24       1.0000    0.64070   0.28940   0.32770   Biso      1.000     C          -0.133544           
         C25       1.0000    0.71680   0.32590   0.21116   Biso      1.000     C          -0.11453900000000002          
         C26       1.0000    0.86620   0.88420   0.16961   Biso      1.000     C          -0.13467300000000001          
         C27       1.0000    0.63240   0.23330   0.66487   Biso      1.000     C          0.628003  
         C28       1.0000    0.89050   0.36698   0.91410   Biso      1.000     C          0.665701  
         C29       1.0000    0.81480   0.35692   0.83975   Biso      1.000     C          -0.14110699999999998          
         C30       1.0000    0.72330   0.81750   0.36371   Biso      1.000     C          0.6474770000000001  
         C31       1.0000    0.90930   0.94420   0.10645   Biso      1.000     C          0.652898  
         C32       1.0000    0.81250   0.89200   0.77145   Biso      1.000     C          -0.10117999999999999          
         C33       1.0000    0.74110   0.92710   0.70571   Biso      1.000     C          -0.099858           
         C34       1.0000    0.69140   0.29640   0.72468   Biso      1.000     C          -0.10276099999999999          
         C35       1.0000    0.18520   0.64308   0.16025   Biso      1.000     C          -0.14110699999999998          
         C36       1.0000    0.77670   0.31750   0.13629   Biso      1.000     C          0.647475  
         C37       1.0000    0.19140   0.20360   0.22468   Biso      1.000     C          -0.10276099999999999          
         C38       1.0000    0.18580   0.24420   0.75860   Biso      1.000     C          -0.123591           
         C39       1.0000    0.13380   0.11580   0.83039   Biso      1.000     C          -0.13469  
         C40       1.0000    0.14070   0.21060   0.82770   Biso      1.000     C          -0.133543           
         C41       1.0000    0.21680   0.17410   0.71116   Biso      1.000     C          -0.11453900000000002          
         C42       1.0000    0.18750   0.10800   0.22855   Biso      1.000     C          -0.10117999999999999          
         C43       1.0000    0.13240   0.26670   0.16487   Biso      1.000     C          0.628003  
         C44       1.0000    0.09070   0.05580   0.89355   Biso      1.000     C          0.652899  
         C45       1.0000    0.27670   0.18250   0.63629   Biso      1.000     C          0.647475  
         C46       1.0000    0.25890   0.07290   0.29429   Biso      1.000     C          -0.099861           
         C47       1.0000    0.39050   0.13302   0.41410   Biso      1.000     C          0.665701  
         C48       1.0000    0.31480   0.14308   0.33975   Biso      1.000     C          -0.14110699999999998          
         Ca1       1.0000    0.97163   0.60559   0.94169   Biso      1.000     Ca          1.3867180000000001  
         Ca2       1.0000    0.40828   0.34702   0.53009   Biso      1.000     Ca          1.468386  
         Ca3       1.0000    0.59172   0.65298   0.46991   Biso      1.000     Ca          1.468386  
         Ca4       1.0000    0.47163   0.89441   0.44169   Biso      1.000     Ca          1.3867180000000001  
         Ca5       1.0000    0.90828   0.15298   0.03009   Biso      1.000     Ca          1.468386  
         Ca6       1.0000    0.52837   0.10559   0.55831   Biso      1.000     Ca          1.386717  
         Ca7       1.0000    0.02837   0.39441   0.05831   Biso      1.000     Ca          1.386717  
         Ca8       1.0000    0.09172   0.84702   0.96991   Biso      1.000     Ca          1.468386  
         H1        1.0000    0.61810   0.25050   0.36730   Biso      1.000     H          0.12331400000000001           
         H2        1.0000    0.85730   0.92970   0.80820   Biso      1.000     H          0.138308  
         H3        1.0000    0.19340   0.30750   0.74690   Biso      1.000     H          0.136463  
         H4        1.0000    0.69340   0.19250   0.24690   Biso      1.000     H          0.136463  
         H5        1.0000    0.76740   0.49060   0.80570   Biso      1.000     H          0.136523  
         H6        1.0000    0.11810   0.24950   0.86730   Biso      1.000     H          0.12331400000000001           
         H7        1.0000    0.64270   0.42970   0.69180   Biso      1.000     H          0.138308  
         H8        1.0000    0.73260   0.99060   0.69430   Biso      1.000     H          0.136523  
         H9        1.0000    0.80660   0.69250   0.25310   Biso      1.000     H          0.136462  
         H10       1.0000    0.88190   0.75050   0.13270   Biso      1.000     H          0.12331500000000001           
         H11       1.0000    0.26740   0.00940   0.30570   Biso      1.000     H          0.136523  
         H12       1.0000    0.38190   0.74950   0.63270   Biso      1.000     H          0.12331400000000001           
         H13       1.0000    0.30660   0.80750   0.75310   Biso      1.000     H          0.136463  
         H14       1.0000    0.23260   0.50940   0.19430   Biso      1.000     H          0.136523  
         H15       1.0000    0.14270   0.07030   0.19180   Biso      1.000     H          0.138308  
         H16       1.0000    0.35730   0.57030   0.30820   Biso      1.000     H          0.138308  
         O1        1.0000    0.55680   0.40393   0.45181   Biso      1.000     O          -0.685344           
         O2        1.0000    0.59650   0.53063   0.38455   Biso      1.000     O          -0.652493           
         O3        1.0000    0.09650   0.96937   0.88455   Biso      1.000     O          -0.652493           
         O4        1.0000    0.82660   0.39068   0.11072   Biso      1.000     O          -0.6655760000000001           
         O5        1.0000    0.57470   0.26769   0.60502   Biso      1.000     O          -0.682266           
         O6        1.0000    0.35700   0.85331   0.32435   Biso      1.000     O          -0.61615  
         O7        1.0000    0.64300   0.14669   0.67565   Biso      1.000     O          -0.61615  
         O8        1.0000    0.07470   0.23231   0.10502   Biso      1.000     O          -0.682266           
         O9        1.0000    0.42690   0.05209   0.43534   Biso      1.000     O          -0.681354           
         O10       1.0000    0.41570   0.20431   0.45473   Biso      1.000     O          -0.688289           
         O11       1.0000    0.08430   0.70431   0.04527   Biso      1.000     O          -0.688289           
         O12       1.0000    0.17340   0.60932   0.88928   Biso      1.000     O          -0.6655760000000001           
         O13       1.0000    0.77340   0.23845   0.10578   Biso      1.000     O          -0.651238           
         O14       1.0000    0.07310   0.55209   0.06466   Biso      1.000     O          -0.681354           
         O15       1.0000    0.40350   0.46937   0.61545   Biso      1.000     O          -0.652493           
         O16       1.0000    0.05680   0.09607   0.95181   Biso      1.000     O          -0.685344           
         O17       1.0000    0.92690   0.44791   0.93534   Biso      1.000     O          -0.681354           
         O18       1.0000    0.91570   0.29569   0.95473   Biso      1.000     O          -0.688289           
         O19       1.0000    0.44320   0.59607   0.54819   Biso      1.000     O          -0.685344           
         O20       1.0000    0.67340   0.89068   0.38928   Biso      1.000     O          -0.665575           
         O21       1.0000    0.94320   0.90393   0.04819   Biso      1.000     O          -0.685344           
         O22       1.0000    0.92530   0.76769   0.89498   Biso      1.000     O          -0.682266           
         O23       1.0000    0.85700   0.64669   0.82435   Biso      1.000     O          -0.61615  
         O24       1.0000    0.57310   0.94791   0.56466   Biso      1.000     O          -0.681354           
         O25       1.0000    0.58430   0.79569   0.54527   Biso      1.000     O          -0.68829  
         O26       1.0000    0.90350   0.03063   0.11545   Biso      1.000     O          -0.652493           
         O27       1.0000    0.42530   0.73231   0.39498   Biso      1.000     O          -0.682266           
         O28       1.0000    0.27340   0.26155   0.60578   Biso      1.000     O          -0.651238           
         O29       1.0000    0.14300   0.35331   0.17565   Biso      1.000     O          -0.61615  
         O30       1.0000    0.72660   0.73845   0.39422   Biso      1.000     O          -0.651238           
         O31       1.0000    0.22660   0.76155   0.89422   Biso      1.000     O          -0.651238           
         O32       1.0000    0.32660   0.10932   0.61072   Biso      1.000     O          -0.6655760000000001           
         S1        1.0000    0.81377   0.93401   0.25071   Biso      1.000     S          0.134927  
         S2        1.0000    0.31377   0.56599   0.75071   Biso      1.000     S          0.134927  
         S3        1.0000    0.18623   0.06599   0.74929   Biso      1.000     S          0.134927  
         S4        1.0000    0.28004   0.25166   0.30208   Biso      1.000     S          0.155264  
         S5        1.0000    0.21996   0.75166   0.19792   Biso      1.000     S          0.155264  
         S6        1.0000    0.78004   0.24834   0.80208   Biso      1.000     S          0.155264  
         S7        1.0000    0.71996   0.74834   0.69792   Biso      1.000     S          0.15526500000000001           
         S8        1.0000    0.68623   0.43401   0.24929   Biso      1.000     S          0.134927 