
##########################################################################
#               Crystallographic Information Format file
#               Produced by PyCifRW module
#
#  This is a CIF file.  CIF has been adopted by the International
#  Union of Crystallography as the standard for data archiving and
#  transmission.
#
#  For information on this file format, follow the CIF links at
#  http://www.iucr.org
##########################################################################

data_image0

_cell_length_a                          18.7843
_cell_length_b                          18.7843
_cell_length_c                          25.0267
_cell_angle_alpha                       90
_cell_angle_beta                        90
_cell_angle_gamma                       120
_symmetry_space_group_name_H-M          'P 1'
_symmetry_int_tables_number             1
loop_
  _symmetry_equiv_pos_as_xyz
         'x, y, z' 
loop_
  _atom_site_label
  _atom_site_occupancy
  _atom_site_fract_x
  _atom_site_fract_y
  _atom_site_fract_z
  _atom_site_thermal_displace_type
  _atom_site_B_iso_or_equiv
  _atom_site_type_symbol
  _atom_site_charge
         C1        1.0000    0.48670   0.97380   0.47470   Biso      1.000     C          0.084228  
         C2        1.0000    0.51440   0.90610   0.40480   Biso      1.000     C          -0.095158           
         C3        1.0000    0.39190   0.90630   0.40470   Biso      1.000     C          -0.095112           
         C4        1.0000    0.18350   0.81660   0.29250   Biso      1.000     C          0.086443  
         C5        1.0000    0.44190   0.88370   0.38060   Biso      1.000     C          -0.030275           
         C6        1.0000    0.92530   0.07470   0.75000   Biso      1.000     C          0.510256  
         C7        1.0000    0.41590   0.83200   0.33012   Biso      1.000     C          0.619915  
         C8        1.0000    0.41390   0.95130   0.45090   Biso      1.000     C          -0.14884  
         C9        1.0000    0.14050   0.86240   0.29580   Biso      1.000     C          -0.163614           
         C10       1.0000    0.04840   0.58500   0.45120   Biso      1.000     C          -0.148625           
         C11       1.0000    0.04870   0.46260   0.45090   Biso      1.000     C          -0.148862           
         C12       1.0000    0.09390   0.60830   0.40480   Biso      1.000     C          -0.095151           
         C13       1.0000    0.09370   0.48560   0.40470   Biso      1.000     C          -0.095105           
         C14       1.0000    0.18340   0.36690   0.29250   Biso      1.000     C          0.086443  
         C15       1.0000    0.11630   0.55820   0.38060   Biso      1.000     C          -0.030276           
         C16       1.0000    0.87780   0.12220   0.75000   Biso      1.000     C          0.054847  
         C17       1.0000    0.53660   0.95160   0.45120   Biso      1.000     C          -0.148592           
         C18       1.0000    0.87780   0.75560   0.75000   Biso      1.000     C          0.054845  
         C19       1.0000    0.85950   0.72190   0.79580   Biso      1.000     C          -0.163543           
         C20       1.0000    0.60830   0.09390   0.90480   Biso      1.000     C          -0.095159           
         C21       1.0000    0.48560   0.09370   0.90470   Biso      1.000     C          -0.095111           
         C22       1.0000    0.36690   0.18340   0.79250   Biso      1.000     C          0.086442  
         C23       1.0000    0.55820   0.11630   0.88060   Biso      1.000     C          -0.030275           
         C24       1.0000    0.51290   0.02620   0.97470   Biso      1.000     C          0.084225  
         C25       1.0000    0.58390   0.16800   0.83012   Biso      1.000     C          0.619915  
         C26       1.0000    0.27810   0.13760   0.79580   Biso      1.000     C          -0.163606           
         C27       1.0000    0.92530   0.85060   0.75000   Biso      1.000     C          0.510253  
         C28       1.0000    0.46340   0.41500   0.95120   Biso      1.000     C          -0.148625           
         C29       1.0000    0.58610   0.53740   0.95090   Biso      1.000     C          -0.148861           
         C30       1.0000    0.48560   0.39170   0.90480   Biso      1.000     C          -0.09515  
         C31       1.0000    0.60810   0.51440   0.90470   Biso      1.000     C          -0.095104           
         C32       1.0000    0.55810   0.44180   0.88060   Biso      1.000     C          -0.030274           
         C33       1.0000    0.51330   0.48710   0.97470   Biso      1.000     C          0.084267  
         C34       1.0000    0.58410   0.41610   0.83012   Biso      1.000     C          0.619915  
         C35       1.0000    0.02620   0.51290   0.47470   Biso      1.000     C          0.084269  
         C36       1.0000    0.16800   0.58390   0.33012   Biso      1.000     C          0.619915  
         C37       1.0000    0.13760   0.27810   0.29580   Biso      1.000     C          -0.163613           
         C38       1.0000    0.14050   0.27810   0.20420   Biso      1.000     C          -0.163613           
         C39       1.0000    0.16800   0.58410   0.16988   Biso      1.000     C          0.619919  
         C40       1.0000    0.13760   0.85950   0.20420   Biso      1.000     C          -0.163613           
         C41       1.0000    0.18350   0.36690   0.20750   Biso      1.000     C          0.086443  
         C42       1.0000    0.39190   0.48560   0.09530   Biso      1.000     C          -0.09511  
         C43       1.0000    0.41500   0.95160   0.04880   Biso      1.000     C          -0.148625           
         C44       1.0000    0.53740   0.95130   0.04910   Biso      1.000     C          -0.148862           
         C45       1.0000    0.39170   0.90610   0.09520   Biso      1.000     C          -0.095151           
         C46       1.0000    0.51440   0.90630   0.09530   Biso      1.000     C          -0.095105           
         C47       1.0000    0.63310   0.81660   0.20750   Biso      1.000     C          0.086443  
         C48       1.0000    0.44180   0.88370   0.11940   Biso      1.000     C          -0.030276           
         C49       1.0000    0.48710   0.97380   0.02530   Biso      1.000     C          0.084269  
         C50       1.0000    0.41610   0.83200   0.16988   Biso      1.000     C          0.619915  
         C51       1.0000    0.72190   0.86240   0.20420   Biso      1.000     C          -0.163613           
         C52       1.0000    0.51440   0.60830   0.09520   Biso      1.000     C          -0.095153           
         C53       1.0000    0.53660   0.58500   0.04880   Biso      1.000     C          -0.14862  
         C54       1.0000    0.02620   0.51330   0.02530   Biso      1.000     C          0.084229  
         C55       1.0000    0.46260   0.04870   0.95090   Biso      1.000     C          -0.148839           
         C56       1.0000    0.11630   0.55810   0.11940   Biso      1.000     C          -0.030311           
         C57       1.0000    0.09370   0.60810   0.09530   Biso      1.000     C          -0.095091           
         C58       1.0000    0.41590   0.58390   0.16988   Biso      1.000     C          0.619916  
         C59       1.0000    0.41500   0.46340   0.45120   Biso      1.000     C          -0.148625           
         C60       1.0000    0.53740   0.58610   0.45090   Biso      1.000     C          -0.148861           
         C61       1.0000    0.39170   0.48560   0.40480   Biso      1.000     C          -0.09515  
         C62       1.0000    0.51440   0.60810   0.40470   Biso      1.000     C          -0.095104           
         C63       1.0000    0.63310   0.81650   0.29250   Biso      1.000     C          0.086443  
         C64       1.0000    0.44180   0.55810   0.38060   Biso      1.000     C          -0.030274           
         C65       1.0000    0.48710   0.51330   0.47470   Biso      1.000     C          0.084269  
         C66       1.0000    0.41610   0.58410   0.33012   Biso      1.000     C          0.619915  
         C67       1.0000    0.72190   0.85950   0.29580   Biso      1.000     C          -0.163613           
         C68       1.0000    0.48670   0.51290   0.02530   Biso      1.000     C          0.084251  
         C69       1.0000    0.44190   0.55820   0.11940   Biso      1.000     C          -0.030273           
         C70       1.0000    0.04840   0.46340   0.04880   Biso      1.000     C          -0.148598           
         C71       1.0000    0.04870   0.58610   0.04910   Biso      1.000     C          -0.148842           
         C72       1.0000    0.09390   0.48560   0.09520   Biso      1.000     C          -0.095136           
         C73       1.0000    0.18340   0.81650   0.20750   Biso      1.000     C          0.086443  
         C74       1.0000    0.58500   0.04840   0.95120   Biso      1.000     C          -0.148591           
         C75       1.0000    0.81650   0.63310   0.79250   Biso      1.000     C          0.086434  
         C76       1.0000    0.14940   0.07470   0.75000   Biso      1.000     C          0.510248  
         C77       1.0000    0.58390   0.41590   0.66988   Biso      1.000     C          0.619919  
         C78       1.0000    0.51290   0.48670   0.52530   Biso      1.000     C          0.084225  
         C79       1.0000    0.55820   0.44190   0.61940   Biso      1.000     C          -0.030309           
         C80       1.0000    0.36690   0.18350   0.70750   Biso      1.000     C          0.086435  
         C81       1.0000    0.48560   0.39190   0.59530   Biso      1.000     C          -0.095091           
         C82       1.0000    0.60830   0.51440   0.59520   Biso      1.000     C          -0.095138           
         C83       1.0000    0.46260   0.41390   0.54910   Biso      1.000     C          -0.148841           
         C84       1.0000    0.24440   0.12220   0.75000   Biso      1.000     C          0.054905  
         C85       1.0000    0.12220   0.24440   0.25000   Biso      1.000     C          0.054964  
         C86       1.0000    0.86240   0.72190   0.70420   Biso      1.000     C          -0.163543           
         C87       1.0000    0.83200   0.41610   0.66988   Biso      1.000     C          0.619919  
         C88       1.0000    0.97380   0.48710   0.52530   Biso      1.000     C          0.084225  
         C89       1.0000    0.88370   0.44180   0.61940   Biso      1.000     C          -0.030311           
         C90       1.0000    0.81660   0.63310   0.70750   Biso      1.000     C          0.086433  
         C91       1.0000    0.27810   0.14050   0.70420   Biso      1.000     C          -0.16355  
         C92       1.0000    0.90630   0.51440   0.59530   Biso      1.000     C          -0.095091           
         C93       1.0000    0.95130   0.53740   0.54910   Biso      1.000     C          -0.148842           
         C94       1.0000    0.95160   0.41500   0.54880   Biso      1.000     C          -0.148597           
         C95       1.0000    0.07470   0.14940   0.25000   Biso      1.000     C          0.510244  
         C96       1.0000    0.85950   0.13760   0.70420   Biso      1.000     C          -0.163542           
         C97       1.0000    0.58410   0.16800   0.66988   Biso      1.000     C          0.619919  
         C98       1.0000    0.51330   0.02620   0.52530   Biso      1.000     C          0.084228  
         C99       1.0000    0.55810   0.11630   0.61940   Biso      1.000     C          -0.030311           
         C100      1.0000    0.81650   0.18340   0.70750   Biso      1.000     C          0.086435  
         C101      1.0000    0.60810   0.09370   0.59530   Biso      1.000     C          -0.095091           
         C102      1.0000    0.48560   0.09390   0.59520   Biso      1.000     C          -0.095139           
         C103      1.0000    0.58610   0.04870   0.54910   Biso      1.000     C          -0.148842           
         C104      1.0000    0.46340   0.04840   0.54880   Biso      1.000     C          -0.148595           
         C105      1.0000    0.75560   0.87780   0.25000   Biso      1.000     C          0.054964  
         C106      1.0000    0.85060   0.92530   0.25000   Biso      1.000     C          0.510244  
         C107      1.0000    0.90610   0.39170   0.59520   Biso      1.000     C          -0.095136           
         C108      1.0000    0.07470   0.92530   0.25000   Biso      1.000     C          0.510244  
         C109      1.0000    0.58500   0.53660   0.54880   Biso      1.000     C          -0.148594           
         C110      1.0000    0.41390   0.46260   0.04910   Biso      1.000     C          -0.148841           
         C111      1.0000    0.90630   0.39190   0.90470   Biso      1.000     C          -0.095112           
         C112      1.0000    0.81660   0.18350   0.79250   Biso      1.000     C          0.086435  
         C113      1.0000    0.90610   0.51440   0.90480   Biso      1.000     C          -0.095158           
         C114      1.0000    0.88370   0.44190   0.88060   Biso      1.000     C          -0.030275           
         C115      1.0000    0.97380   0.48670   0.97470   Biso      1.000     C          0.084228  
         C116      1.0000    0.83200   0.41590   0.83012   Biso      1.000     C          0.619915  
         C117      1.0000    0.86240   0.14050   0.79580   Biso      1.000     C          -0.163542           
         C118      1.0000    0.95130   0.41390   0.95090   Biso      1.000     C          -0.14884  
         C119      1.0000    0.12220   0.87780   0.25000   Biso      1.000     C          0.054964  
         C120      1.0000    0.95160   0.53660   0.95120   Biso      1.000     C          -0.148592           
         H1        1.0000    0.60430   0.80130   0.17550   Biso      1.000     H          0.078892  
         H2        1.0000    0.10910   0.65900   0.11050   Biso      1.000     H          0.107777  
         H3        1.0000    0.10950   0.45020   0.11010   Biso      1.000     H          0.109526  
         H4        1.0000    0.80130   0.19700   0.82450   Biso      1.000     H          0.078893  
         H5        1.0000    0.54980   0.65930   0.11010   Biso      1.000     H          0.109527  
         H6        1.0000    0.03330   0.62170   0.03390   Biso      1.000     H          0.111542  
         H7        1.0000    0.37830   0.41160   0.03390   Biso      1.000     H          0.111543  
         H8        1.0000    0.03280   0.41260   0.03350   Biso      1.000     H          0.11009   
         H9        1.0000    0.96720   0.37980   0.53350   Biso      1.000     H          0.11009   
         H10       1.0000    0.19700   0.39570   0.17550   Biso      1.000     H          0.078892  
         H11       1.0000    0.24920   0.12140   0.82780   Biso      1.000     H          0.147609  
         H12       1.0000    0.96670   0.58840   0.53390   Biso      1.000     H          0.111542  
         H13       1.0000    0.75080   0.87220   0.32780   Biso      1.000     H          0.14761   
         H14       1.0000    0.62020   0.03280   0.96650   Biso      1.000     H          0.11009   
         H15       1.0000    0.89050   0.34070   0.61010   Biso      1.000     H          0.109525  
         H16       1.0000    0.19870   0.80300   0.17550   Biso      1.000     H          0.078893  
         H17       1.0000    0.87220   0.12140   0.67220   Biso      1.000     H          0.147604  
         H18       1.0000    0.75080   0.87860   0.17220   Biso      1.000     H          0.14761   
         H19       1.0000    0.41160   0.03330   0.96610   Biso      1.000     H          0.111542  
         H20       1.0000    0.65930   0.10950   0.88990   Biso      1.000     H          0.109527  
         H21       1.0000    0.54990   0.89090   0.11050   Biso      1.000     H          0.107778  
         H22       1.0000    0.45020   0.10950   0.61010   Biso      1.000     H          0.109526  
         H23       1.0000    0.34070   0.89050   0.11010   Biso      1.000     H          0.109526  
         H24       1.0000    0.87860   0.12780   0.82780   Biso      1.000     H          0.147604  
         H25       1.0000    0.58840   0.96670   0.03390   Biso      1.000     H          0.111544  
         H26       1.0000    0.62170   0.03330   0.53390   Biso      1.000     H          0.111542  
         H27       1.0000    0.65900   0.10910   0.61050   Biso      1.000     H          0.107777  
         H28       1.0000    0.45010   0.10910   0.88950   Biso      1.000     H          0.107778  
         H29       1.0000    0.80300   0.19870   0.67550   Biso      1.000     H          0.078893  
         H30       1.0000    0.89090   0.54990   0.61050   Biso      1.000     H          0.107777  
         H31       1.0000    0.41260   0.03280   0.53350   Biso      1.000     H          0.11009   
         H32       1.0000    0.12140   0.87220   0.17220   Biso      1.000     H          0.147611  
         H33       1.0000    0.39570   0.19870   0.82450   Biso      1.000     H          0.078892  
         H34       1.0000    0.37980   0.96720   0.03350   Biso      1.000     H          0.110093  
         H35       1.0000    0.34100   0.45010   0.11050   Biso      1.000     H          0.107779  
         H36       1.0000    0.60430   0.80300   0.32450   Biso      1.000     H          0.078892  
         H37       1.0000    0.54990   0.65900   0.38950   Biso      1.000     H          0.107778  
         H38       1.0000    0.89090   0.34100   0.88950   Biso      1.000     H          0.107778  
         H39       1.0000    0.03330   0.41160   0.46610   Biso      1.000     H          0.111544  
         H40       1.0000    0.65900   0.54990   0.88950   Biso      1.000     H          0.107778  
         H41       1.0000    0.03280   0.62020   0.46650   Biso      1.000     H          0.110093  
         H42       1.0000    0.65930   0.54980   0.61010   Biso      1.000     H          0.109526  
         H43       1.0000    0.58740   0.62020   0.03350   Biso      1.000     H          0.110093  
         H44       1.0000    0.12780   0.87860   0.32780   Biso      1.000     H          0.147612  
         H45       1.0000    0.45010   0.34100   0.61050   Biso      1.000     H          0.107777  
         H46       1.0000    0.10950   0.65930   0.38990   Biso      1.000     H          0.109526  
         H47       1.0000    0.80300   0.60430   0.82450   Biso      1.000     H          0.078893  
         H48       1.0000    0.19700   0.80130   0.32450   Biso      1.000     H          0.078893  
         H49       1.0000    0.96720   0.58740   0.96650   Biso      1.000     H          0.11009   
         H50       1.0000    0.34100   0.89090   0.38950   Biso      1.000     H          0.107778  
         H51       1.0000    0.54980   0.89050   0.38990   Biso      1.000     H          0.109527  
         H52       1.0000    0.37830   0.96670   0.46610   Biso      1.000     H          0.111542  
         H53       1.0000    0.24920   0.12780   0.67220   Biso      1.000     H          0.147605  
         H54       1.0000    0.58740   0.96720   0.46650   Biso      1.000     H          0.11009   
         H55       1.0000    0.87220   0.75080   0.82780   Biso      1.000     H          0.147604  
         H56       1.0000    0.39570   0.19700   0.67550   Biso      1.000     H          0.078893  
         H57       1.0000    0.96670   0.37830   0.96610   Biso      1.000     H          0.111542  
         H58       1.0000    0.41160   0.37830   0.53390   Biso      1.000     H          0.111543  
         H59       1.0000    0.62020   0.58740   0.53350   Biso      1.000     H          0.110091  
         H60       1.0000    0.80130   0.60430   0.67550   Biso      1.000     H          0.078893  
         H61       1.0000    0.34070   0.45020   0.38990   Biso      1.000     H          0.109527  
         H62       1.0000    0.58840   0.62170   0.46610   Biso      1.000     H          0.111545  
         H63       1.0000    0.41260   0.37980   0.96650   Biso      1.000     H          0.110094  
         H64       1.0000    0.37980   0.41260   0.46650   Biso      1.000     H          0.110094  
         H65       1.0000    0.89050   0.54980   0.88990   Biso      1.000     H          0.109527  
         H66       1.0000    0.10910   0.45010   0.38950   Biso      1.000     H          0.107778  
         H67       1.0000    0.87860   0.75080   0.67220   Biso      1.000     H          0.147604  
         H68       1.0000    0.12780   0.24920   0.17220   Biso      1.000     H          0.14761   
         H69       1.0000    0.62170   0.58840   0.96610   Biso      1.000     H          0.111545  
         H70       1.0000    0.45020   0.34070   0.88990   Biso      1.000     H          0.109527  
         H71       1.0000    0.19870   0.39570   0.32450   Biso      1.000     H          0.078892  
         H72       1.0000    0.12140   0.24920   0.32780   Biso      1.000     H          0.14761   
         In1       1.0000    0.72901   0.27099   0.75000   Biso      1.000     In          1.454372  
         In2       1.0000    0.27099   0.54198   0.25000   Biso      1.000     In          1.454423  
         In3       1.0000    0.45802   0.72901   0.25000   Biso      1.000     In          1.454423  
         In4       1.0000    0.54198   0.27099   0.75000   Biso      1.000     In          1.454423  
         In5       1.0000    0.27099   0.72901   0.25000   Biso      1.000     In          1.454372  
         In6       1.0000    0.72901   0.45802   0.75000   Biso      1.000     In          1.454424  
         N1        1.0000    0.20445   0.40890   0.25000   Biso      1.000     N          -0.213575           
         N2        1.0000    0.79555   0.20445   0.75000   Biso      1.000     N          -0.213561           
         N3        1.0000    0.20445   0.79555   0.25000   Biso      1.000     N          -0.213561           
         N4        1.0000    0.40890   0.20445   0.75000   Biso      1.000     N          -0.213574           
         N5        1.0000    0.59110   0.79555   0.25000   Biso      1.000     N          -0.213575           
         N6        1.0000    0.79555   0.59110   0.75000   Biso      1.000     N          -0.213573           
         O1        1.0000    0.53379   0.18743   0.68827   Biso      1.000     O          -0.580631           
         O2        1.0000    0.34640   0.53397   0.18829   Biso      1.000     O          -0.57779  
         O3        1.0000    0.05750   0.11450   0.20120   Biso      1.000     O          -0.528767           
         O4        1.0000    0.11450   0.05700   0.79880   Biso      1.000     O          -0.528768           
         O5        1.0000    0.53397   0.18757   0.81171   Biso      1.000     O          -0.577789           
         O6        1.0000    0.65364   0.18743   0.81173   Biso      1.000     O          -0.580621           
         O7        1.0000    0.94300   0.05750   0.79880   Biso      1.000     O          -0.528768           
         O8        1.0000    0.81243   0.34640   0.81171   Biso      1.000     O          -0.577778           
         O9        1.0000    0.81257   0.46621   0.81173   Biso      1.000     O          -0.580631           
         O10       1.0000    0.11450   0.05750   0.70120   Biso      1.000     O          -0.528769           
         O11       1.0000    0.53397   0.34640   0.68829   Biso      1.000     O          -0.57779  
         O12       1.0000    0.65364   0.46621   0.68827   Biso      1.000     O          -0.580632           
         O13       1.0000    0.94300   0.88550   0.70120   Biso      1.000     O          -0.528769           
         O14       1.0000    0.81243   0.46603   0.68829   Biso      1.000     O          -0.577788           
         O15       1.0000    0.81257   0.34636   0.68827   Biso      1.000     O          -0.580621           
         O16       1.0000    0.94250   0.05700   0.70120   Biso      1.000     O          -0.528768           
         O17       1.0000    0.65360   0.18757   0.68829   Biso      1.000     O          -0.577778           
         O18       1.0000    0.65360   0.46603   0.81171   Biso      1.000     O          -0.57779  
         O19       1.0000    0.94250   0.88550   0.79880   Biso      1.000     O          -0.528769           
         O20       1.0000    0.53379   0.34636   0.81173   Biso      1.000     O          -0.580633           
         O21       1.0000    0.34640   0.81243   0.31171   Biso      1.000     O          -0.577778           
         O22       1.0000    0.46621   0.65364   0.18827   Biso      1.000     O          -0.580633           
         O23       1.0000    0.88550   0.94300   0.20120   Biso      1.000     O          -0.528767           
         O24       1.0000    0.46603   0.81243   0.18829   Biso      1.000     O          -0.577789           
         O25       1.0000    0.34636   0.81257   0.18827   Biso      1.000     O          -0.580621           
         O26       1.0000    0.05700   0.94250   0.20120   Biso      1.000     O          -0.528764           
         O27       1.0000    0.46621   0.81257   0.31173   Biso      1.000     O          -0.580631           
         O28       1.0000    0.18743   0.53379   0.18827   Biso      1.000     O          -0.580631           
         O29       1.0000    0.18757   0.65360   0.18829   Biso      1.000     O          -0.577778           
         O30       1.0000    0.46603   0.65360   0.31171   Biso      1.000     O          -0.57779  
         O31       1.0000    0.34636   0.53379   0.31173   Biso      1.000     O          -0.580633           
         O32       1.0000    0.05700   0.11450   0.29880   Biso      1.000     O          -0.528766           
         O33       1.0000    0.18757   0.53397   0.31171   Biso      1.000     O          -0.577789           
         O34       1.0000    0.18743   0.65364   0.31173   Biso      1.000     O          -0.580621           
         O35       1.0000    0.66667   0.33333   0.75000   Biso      1.000     O          -1.057104           
         O36       1.0000    0.05750   0.94300   0.29880   Biso      1.000     O          -0.528764           
         O37       1.0000    0.88550   0.94250   0.29880   Biso      1.000     O          -0.528766           
         O38       1.0000    0.33333   0.66667   0.25000   Biso      1.000     O          -1.057103           
         Zn1       1.0000    0.00000   0.00000   0.67797   Biso      1.000     Zn          0.557707  
         Zn2       1.0000    0.00000   0.00000   0.82203   Biso      1.000     Zn          0.557705  
         Zn3       1.0000    0.00000   0.00000   0.32203   Biso      1.000     Zn          0.557704  
         Zn4       1.0000    0.00000   0.00000   0.17797   Biso      1.000     Zn          0.557707 