
##########################################################################
#               Crystallographic Information Format file
#               Produced by PyCifRW module
#
#  This is a CIF file.  CIF has been adopted by the International
#  Union of Crystallography as the standard for data archiving and
#  transmission.
#
#  For information on this file format, follow the CIF links at
#  http://www.iucr.org
##########################################################################

data_image0

_cell_length_a                          4.8105
_cell_length_b                          7.6762
_cell_length_c                          17.8448
_cell_angle_alpha                       90
_cell_angle_beta                        90
_cell_angle_gamma                       90
_symmetry_space_group_name_H-M          'P 1'
_symmetry_int_tables_number             1
loop_
  _symmetry_equiv_pos_as_xyz
         'x, y, z' 
loop_
  _atom_site_label
  _atom_site_occupancy
  _atom_site_fract_x
  _atom_site_fract_y
  _atom_site_fract_z
  _atom_site_thermal_displace_type
  _atom_site_B_iso_or_equiv
  _atom_site_type_symbol
  _atom_site_charge
         C1        1.0000    0.09330   0.09560   0.10690   Biso      1.000     C          0.6784100000000001  
         C2        1.0000    0.09330   0.90440   0.89310   Biso      1.000     C          0.678416  
         C3        1.0000    0.09690   0.96650   0.96920   Biso      1.000     C          -0.088821           
         C4        1.0000    0.47800   0.34050   0.77720   Biso      1.000     C          0.784339  
         C5        1.0000    0.47800   0.15950   0.27720   Biso      1.000     C          0.7843289999999999  
         C6        1.0000    0.09690   0.53350   0.46920   Biso      1.000     C          -0.088823           
         C7        1.0000    0.09330   0.59560   0.39310   Biso      1.000     C          0.678431  
         C8        1.0000    0.47800   0.84050   0.72280   Biso      1.000     C          0.784335  
         C9        1.0000    0.09690   0.46650   0.53080   Biso      1.000     C          -0.088713           
         C10       1.0000    0.09330   0.40440   0.60690   Biso      1.000     C          0.678424  
         C11       1.0000    0.47800   0.65950   0.22280   Biso      1.000     C          0.784351  
         C12       1.0000    0.09690   0.03350   0.03080   Biso      1.000     C          -0.08869099999999999          
         Eu1       1.0000    0.97021   0.95735   0.28904   Biso      1.000     Eu          1.417681  
         Eu2       1.0000    0.97021   0.54265   0.78904   Biso      1.000     Eu          1.417666  
         Eu3       1.0000    0.97021   0.45735   0.21096   Biso      1.000     Eu          1.417649  
         Eu4       1.0000    0.97021   0.04265   0.71096   Biso      1.000     Eu          1.41767   
         O1        1.0000    0.07010   0.74480   0.88545   Biso      1.000     O          -0.510228           
         O2        1.0000    0.46330   0.48270   0.81148   Biso      1.000     O          -0.6143850000000001           
         O3        1.0000    0.23300   0.30180   0.73930   Biso      1.000     O          -0.572558           
         O4        1.0000    0.70400   0.74570   0.22252   Biso      1.000     O          -0.638473           
         O5        1.0000    0.09490   0.97950   0.15554   Biso      1.000     O          -0.45605100000000004          
         O6        1.0000    0.07010   0.25520   0.11455   Biso      1.000     O          -0.5102270000000001           
         O7        1.0000    0.46330   0.51730   0.18852   Biso      1.000     O          -0.61439  
         O8        1.0000    0.23300   0.69820   0.26070   Biso      1.000     O          -0.572553           
         O9        1.0000    0.70400   0.75430   0.72252   Biso      1.000     O          -0.638471           
         O10       1.0000    0.46330   0.01730   0.31148   Biso      1.000     O          -0.614354           
         O11       1.0000    0.07010   0.24480   0.61455   Biso      1.000     O          -0.5102720000000001           
         O12       1.0000    0.46330   0.98270   0.68852   Biso      1.000     O          -0.614355           
         O13       1.0000    0.23300   0.80180   0.76070   Biso      1.000     O          -0.572543           
         O14       1.0000    0.70400   0.24570   0.27748   Biso      1.000     O          -0.638464           
         O15       1.0000    0.09490   0.47950   0.34446   Biso      1.000     O          -0.456006           
         O16       1.0000    0.07010   0.75520   0.38545   Biso      1.000     O          -0.510262           
         O17       1.0000    0.09490   0.02050   0.84446   Biso      1.000     O          -0.456031           
         O18       1.0000    0.23300   0.19820   0.23930   Biso      1.000     O          -0.572551           
         O19       1.0000    0.09490   0.52050   0.65554   Biso      1.000     O          -0.45601099999999994          
         O20       1.0000    0.70400   0.25430   0.77748   Biso      1.000     O          -0.638468 