
##########################################################################
#               Crystallographic Information Format file
#               Produced by PyCifRW module
#
#  This is a CIF file.  CIF has been adopted by the International
#  Union of Crystallography as the standard for data archiving and
#  transmission.
#
#  For information on this file format, follow the CIF links at
#  http://www.iucr.org
##########################################################################

data_image0

_cell_length_a                          6.592
_cell_length_b                          6.6862
_cell_length_c                          6.6862
_cell_angle_alpha                       115.365
_cell_angle_beta                        106.435
_cell_angle_gamma                       73.5646
_symmetry_space_group_name_H-M          'P 1'
_symmetry_int_tables_number             1
loop_
  _symmetry_equiv_pos_as_xyz
         'x, y, z' 
loop_
  _atom_site_label
  _atom_site_occupancy
  _atom_site_fract_x
  _atom_site_fract_y
  _atom_site_fract_z
  _atom_site_thermal_displace_type
  _atom_site_B_iso_or_equiv
  _atom_site_type_symbol
  _atom_site_charge
         C1        1.0000    0.03490   0.46770   0.93770   Biso      1.000     C          0.5918329999999999  
         C2        1.0000    0.96510   0.93770   0.46770   Biso      1.000     C          0.591845  
         C3        1.0000    0.50000   0.92990   0.92990   Biso      1.000     C          0.5600470000000001  
         Dy1       1.0000    0.00000   0.00000   0.00000   Biso      1.000     Dy          2.1149310000000003  
         H1        1.0000    0.88600   0.46400   0.84600   Biso      1.000     H          0.013538  
         H2        1.0000    0.11400   0.84600   0.46400   Biso      1.000     H          0.013531999999999999          
         H3        1.0000    0.50000   0.07000   0.07000   Biso      1.000     H          -0.012824           
         O1        1.0000    0.12030   0.31120   0.00380   Biso      1.000     O          -0.6677609999999999           
         O2        1.0000    0.11680   0.62980   0.97480   Biso      1.000     O          -0.644757           
         O3        1.0000    0.66330   0.85930   0.84490   Biso      1.000     O          -0.623933           
         O4        1.0000    0.87970   0.00380   0.31120   Biso      1.000     O          -0.66776  
         O5        1.0000    0.88320   0.97480   0.62980   Biso      1.000     O          -0.6447689999999999           
         O6        1.0000    0.33670   0.84490   0.85930   Biso      1.000     O          -0.623922 