
##########################################################################
#               Crystallographic Information Format file
#               Produced by PyCifRW module
#
#  This is a CIF file.  CIF has been adopted by the International
#  Union of Crystallography as the standard for data archiving and
#  transmission.
#
#  For information on this file format, follow the CIF links at
#  http://www.iucr.org
##########################################################################

data_image0

_cell_length_a                          6.8365
_cell_length_b                          15.1444
_cell_length_c                          15.1444
_cell_angle_alpha                       62.2227
_cell_angle_beta                        81.3456
_cell_angle_gamma                       98.6544
_symmetry_space_group_name_H-M          'P 1'
_symmetry_int_tables_number             1
loop_
  _symmetry_equiv_pos_as_xyz
         'x, y, z' 
loop_
  _atom_site_label
  _atom_site_occupancy
  _atom_site_fract_x
  _atom_site_fract_y
  _atom_site_fract_z
  _atom_site_thermal_displace_type
  _atom_site_B_iso_or_equiv
  _atom_site_type_symbol
  _atom_site_charge
         C1        1.0000    0.96412   0.10053   0.46527   Biso      1.000     C          0.297715  
         C2        1.0000    0.92284   0.53450   0.91218   Biso      1.000     C          -0.157288           
         C3        1.0000    0.13641   0.56580   0.89947   Biso      1.000     C          0.298672  
         C4        1.0000    0.79409   0.47112   0.01125   Biso      1.000     C          -0.20998899999999998          
         C5        1.0000    0.35166   0.17612   0.38594   Biso      1.000     C          0.638636  
         C6        1.0000    0.16498   0.08782   0.44668   Biso      1.000     C          -0.156227           
         C7        1.0000    0.19466   0.98875   0.48237   Biso      1.000     C          -0.209175           
         C8        1.0000    0.32297   0.51763   0.47112   Biso      1.000     C          -0.20953899999999998          
         C9        1.0000    0.73760   0.38594   0.43794   Biso      1.000     C          0.638987  
         C10       1.0000    0.42939   0.46527   0.43420   Biso      1.000     C          0.298645  
         C11       1.0000    0.67703   0.48237   0.52888   Biso      1.000     C          -0.20953899999999998          
         C12       1.0000    0.17554   0.43794   0.17612   Biso      1.000     C          0.640181  
         C13       1.0000    0.07716   0.46550   0.08782   Biso      1.000     C          -0.157288           
         C14       1.0000    0.86359   0.43420   0.10053   Biso      1.000     C          0.298672  
         C15       1.0000    0.20591   0.52888   0.98875   Biso      1.000     C          -0.20998899999999998          
         C16       1.0000    0.61166   0.44668   0.46550   Biso      1.000     C          -0.158338           
         C17       1.0000    0.57061   0.53473   0.56580   Biso      1.000     C          0.298645  
         C18       1.0000    0.82446   0.56206   0.82388   Biso      1.000     C          0.640181  
         C19       1.0000    0.26240   0.61406   0.56206   Biso      1.000     C          0.638987  
         C20       1.0000    0.80534   0.01125   0.51763   Biso      1.000     C          -0.209173           
         C21       1.0000    0.03588   0.89947   0.53473   Biso      1.000     C          0.297716  
         C22       1.0000    0.83502   0.91218   0.55332   Biso      1.000     C          -0.156227           
         C23       1.0000    0.64834   0.82388   0.61406   Biso      1.000     C          0.638636  
         C24       1.0000    0.38834   0.55332   0.53450   Biso      1.000     C          -0.158338           
         H1        1.0000    0.66950   0.01810   0.52970   Biso      1.000     H          0.141604  
         H2        1.0000    0.65140   0.45220   0.01810   Biso      1.000     H          0.142273  
         H3        1.0000    0.33050   0.98190   0.47030   Biso      1.000     H          0.141604  
         H4        1.0000    0.19920   0.52970   0.45220   Biso      1.000     H          0.142999  
         H5        1.0000    0.80080   0.47030   0.54780   Biso      1.000     H          0.142999  
         H6        1.0000    0.34860   0.54780   0.98190   Biso      1.000     H          0.142273  
         O1        1.0000    0.93746   0.61526   0.73308   Biso      1.000     O          -0.591086           
         O2        1.0000    0.91757   0.19176   0.43695   Biso      1.000     O          -0.5881069999999999           
         O3        1.0000    0.67780   0.34834   0.38474   Biso      1.000     O          -0.590923           
         O4        1.0000    0.89727   0.37448   0.46947   Biso      1.000     O          -0.530131           
         O5        1.0000    0.35452   0.43695   0.37129   Biso      1.000     O          -0.58831  
         O6        1.0000    0.06254   0.38474   0.26692   Biso      1.000     O          -0.591086           
         O7        1.0000    0.32946   0.26692   0.34834   Biso      1.000     O          -0.5908869999999999           
         O8        1.0000    0.27419   0.62871   0.80824   Biso      1.000     O          -0.588262           
         O9        1.0000    0.63326   0.53053   0.84395   Biso      1.000     O          -0.5307430000000001           
         O10       1.0000    0.52279   0.15605   0.37448   Biso      1.000     O          -0.52994  
         O11       1.0000    0.64548   0.56305   0.62871   Biso      1.000     O          -0.58831  
         O12       1.0000    0.72581   0.37129   0.19176   Biso      1.000     O          -0.588262           
         O13       1.0000    0.32220   0.65166   0.61526   Biso      1.000     O          -0.590923           
         O14       1.0000    0.08243   0.80824   0.56305   Biso      1.000     O          -0.5881069999999999           
         O15       1.0000    0.47721   0.84395   0.62552   Biso      1.000     O          -0.52994  
         O16       1.0000    0.67054   0.73308   0.65166   Biso      1.000     O          -0.5908869999999999           
         O17       1.0000    0.36674   0.46947   0.15605   Biso      1.000     O          -0.5307430000000001           
         O18       1.0000    0.10273   0.62552   0.53053   Biso      1.000     O          -0.530131           
         Zn1       1.0000    0.79513   0.26231   0.31561   Biso      1.000     Zn          0.9960370000000001  
         Zn2       1.0000    0.53282   0.42208   0.26231   Biso      1.000     Zn          0.996624  
         Zn3       1.0000    0.11074   0.31561   0.42208   Biso      1.000     Zn          0.9965700000000001  
         Zn4       1.0000    0.20487   0.73769   0.68439   Biso      1.000     Zn          0.9960370000000001  
         Zn5       1.0000    0.46718   0.57792   0.73769   Biso      1.000     Zn          0.996624  
         Zn6       1.0000    0.88926   0.68439   0.57792   Biso      1.000     Zn          0.9965700000000001 