
##########################################################################
#               Crystallographic Information Format file
#               Produced by PyCifRW module
#
#  This is a CIF file.  CIF has been adopted by the International
#  Union of Crystallography as the standard for data archiving and
#  transmission.
#
#  For information on this file format, follow the CIF links at
#  http://www.iucr.org
##########################################################################

data_image0

_cell_length_a                          10.5842
_cell_length_b                          13.4738
_cell_length_c                          14.42
_cell_angle_alpha                       77.2203
_cell_angle_beta                        68.4695
_cell_angle_gamma                       66.8731
_symmetry_space_group_name_H-M          'P 1'
_symmetry_int_tables_number             1
loop_
  _symmetry_equiv_pos_as_xyz
         'x, y, z' 
loop_
  _atom_site_label
  _atom_site_occupancy
  _atom_site_fract_x
  _atom_site_fract_y
  _atom_site_fract_z
  _atom_site_thermal_displace_type
  _atom_site_B_iso_or_equiv
  _atom_site_type_symbol
  _atom_site_charge
         C1        1.0000    0.00020   0.45790   0.70530   Biso      1.000     C          0.597153  
         C2        1.0000    0.99860   0.47860   0.59940   Biso      1.000     C          -0.017093           
         C3        1.0000    0.60340   0.94160   0.82100   Biso      1.000     C          -0.021647           
         C4        1.0000    0.48330   0.97380   0.24040   Biso      1.000     C          0.60978   
         C5        1.0000    0.39660   0.05840   0.17900   Biso      1.000     C          -0.019551           
         C6        1.0000    0.34180   0.16670   0.19690   Biso      1.000     C          -0.103435           
         C7        1.0000    0.37020   0.03150   0.10190   Biso      1.000     C          -0.100354           
         C8        1.0000    0.08870   0.40250   0.53170   Biso      1.000     C          -0.10554  
         C9        1.0000    0.26570   0.24610   0.13890   Biso      1.000     C          -0.100786           
         C10       1.0000    0.24420   0.21820   0.05960   Biso      1.000     C          -0.039359           
         C11       1.0000    0.16720   0.30520   0.99460   Biso      1.000     C          0.624446  
         C12       1.0000    0.05340   0.92320   0.93280   Biso      1.000     C          -0.104507           
         C13       1.0000    0.02290   0.09750   0.96830   Biso      1.000     C          -0.104965           
         C14       1.0000    0.07660   0.02140   0.90060   Biso      1.000     C          -0.018768           
         C15       1.0000    0.16340   0.04210   0.79470   Biso      1.000     C          0.598072  
         C16       1.0000    0.29660   0.11050   0.04170   Biso      1.000     C          -0.096179           
         C17       1.0000    0.69750   0.52620   0.25960   Biso      1.000     C          0.608696  
         C18       1.0000    0.90940   0.57680   0.56720   Biso      1.000     C          -0.102975           
         C19       1.0000    0.47800   0.71820   0.55960   Biso      1.000     C          -0.03758  
         C20       1.0000    0.73430   0.75390   0.86110   Biso      1.000     C          -0.101146           
         C21       1.0000    0.70340   0.88950   0.95830   Biso      1.000     C          -0.096212           
         C22       1.0000    0.75580   0.78180   0.94040   Biso      1.000     C          -0.037782           
         C23       1.0000    0.83280   0.69480   0.00540   Biso      1.000     C          0.620547  
         C24       1.0000    0.94660   0.07680   0.06720   Biso      1.000     C          -0.104485           
         C25       1.0000    0.97710   0.90250   0.03170   Biso      1.000     C          -0.104948           
         C26       1.0000    0.53300   0.80520   0.49460   Biso      1.000     C          0.619937  
         C27       1.0000    0.92340   0.97860   0.09940   Biso      1.000     C          -0.018817           
         C28       1.0000    0.30250   0.47380   0.74040   Biso      1.000     C          0.615004  
         C29       1.0000    0.36600   0.55840   0.67900   Biso      1.000     C          -0.01985  
         C30       1.0000    0.29460   0.66670   0.69690   Biso      1.000     C          -0.101805           
         C31       1.0000    0.49640   0.53150   0.60190   Biso      1.000     C          -0.101798           
         C32       1.0000    0.34930   0.74610   0.63890   Biso      1.000     C          -0.101892           
         C33       1.0000    0.55120   0.61050   0.54170   Biso      1.000     C          -0.095642           
         C34       1.0000    0.83660   0.95790   0.20530   Biso      1.000     C          0.594503  
         C35       1.0000    0.63400   0.44160   0.32100   Biso      1.000     C          -0.018129           
         C36       1.0000    0.70540   0.33330   0.30310   Biso      1.000     C          -0.102644           
         C37       1.0000    0.50360   0.46850   0.39810   Biso      1.000     C          -0.102884           
         C38       1.0000    0.09060   0.42320   0.43280   Biso      1.000     C          -0.102875           
         C39       1.0000    0.91130   0.59750   0.46830   Biso      1.000     C          -0.105315           
         C40       1.0000    0.00140   0.52140   0.40060   Biso      1.000     C          -0.017426           
         C41       1.0000    0.99980   0.54210   0.29470   Biso      1.000     C          0.594444  
         C42       1.0000    0.51670   0.02620   0.75960   Biso      1.000     C          0.616929  
         C43       1.0000    0.62980   0.96850   0.89810   Biso      1.000     C          -0.098912           
         C44       1.0000    0.65820   0.83330   0.80310   Biso      1.000     C          -0.10221  
         C45       1.0000    0.65070   0.25390   0.36110   Biso      1.000     C          -0.101495           
         C46       1.0000    0.44880   0.38950   0.45830   Biso      1.000     C          -0.095519           
         C47       1.0000    0.52200   0.28180   0.44040   Biso      1.000     C          -0.038674           
         C48       1.0000    0.46700   0.19480   0.50540   Biso      1.000     C          0.623341  
         H1        1.0000    0.59700   0.04240   0.90980   Biso      1.000     H          0.118555  
         H2        1.0000    0.15310   0.36990   0.38710   Biso      1.000     H          0.119353  
         H3        1.0000    0.36100   0.40950   0.51190   Biso      1.000     H          0.113607  
         H4        1.0000    0.70080   0.18040   0.34700   Biso      1.000     H          0.116939  
         H5        1.0000    0.45080   0.54240   0.40980   Biso      1.000     H          0.120073  
         H6        1.0000    0.79370   0.31310   0.24990   Biso      1.000     H          0.118842  
         H7        1.0000    0.03850   0.16480   0.94680   Biso      1.000     H          0.113369  
         H8        1.0000    0.08990   0.86990   0.88710   Biso      1.000     H          0.120525  
         H9        1.0000    0.28240   0.09050   0.98810   Biso      1.000     H          0.114494  
         H10       1.0000    0.22820   0.31960   0.15300   Biso      1.000     H          0.116429  
         H11       1.0000    0.40300   0.95760   0.09020   Biso      1.000     H          0.119017  
         H12       1.0000    0.35670   0.18690   0.25010   Biso      1.000     H          0.118148  
         H13       1.0000    0.15010   0.33520   0.55320   Biso      1.000     H          0.113129  
         H14       1.0000    0.84990   0.66480   0.44680   Biso      1.000     H          0.113556  
         H15       1.0000    0.63900   0.59050   0.48810   Biso      1.000     H          0.114122  
         H16       1.0000    0.29920   0.81960   0.65300   Biso      1.000     H          0.116903  
         H17       1.0000    0.54920   0.45760   0.59020   Biso      1.000     H          0.119509  
         H18       1.0000    0.20630   0.68690   0.75010   Biso      1.000     H          0.118761  
         H19       1.0000    0.96150   0.83520   0.05320   Biso      1.000     H          0.113913  
         H20       1.0000    0.91010   0.13010   0.11290   Biso      1.000     H          0.120547  
         H21       1.0000    0.71760   0.90950   0.01190   Biso      1.000     H          0.115125  
         H22       1.0000    0.77180   0.68040   0.84700   Biso      1.000     H          0.116489  
         H23       1.0000    0.64330   0.81310   0.74990   Biso      1.000     H          0.118141  
         H24       1.0000    0.84690   0.63010   0.61290   Biso      1.000     H          0.119328  
         Mn1       1.0000    0.35837   0.03705   0.61135   Biso      1.000     Mn          1.017412  
         Mn2       1.0000    0.71839   0.75000   0.25000   Biso      1.000     Mn          1.004775  
         Mn3       1.0000    0.28161   0.25000   0.75000   Biso      1.000     Mn          1.130019  
         Mn4       1.0000    0.99323   0.53705   0.11135   Biso      1.000     Mn          1.015138  
         Mn5       1.0000    0.64163   0.96295   0.38865   Biso      1.000     Mn          1.016936  
         Mn6       1.0000    0.00677   0.46295   0.88865   Biso      1.000     Mn          1.015168  
         O1        1.0000    0.45906   0.12208   0.78420   Biso      1.000     O          -0.572162           
         O2        1.0000    0.50556   0.99178   0.69090   Biso      1.000     O          -0.570599           
         O3        1.0000    0.90549   0.60181   0.97541   Biso      1.000     O          -0.575421           
         O4        1.0000    0.82992   0.71535   0.08721   Biso      1.000     O          -0.556546           
         O5        1.0000    0.81953   0.86704   0.23390   Biso      1.000     O          -0.576617           
         O6        1.0000    0.78376   0.03108   0.26240   Biso      1.000     O          -0.540685           
         O7        1.0000    0.36534   0.37792   0.71580   Biso      1.000     O          -0.572507           
         O8        1.0000    0.18824   0.50822   0.80910   Biso      1.000     O          -0.567568           
         O9        1.0000    0.48271   0.89819   0.52459   Biso      1.000     O          -0.574163           
         O10       1.0000    0.63248   0.78465   0.41279   Biso      1.000     O          -0.556428           
         O11       1.0000    0.07953   0.36704   0.73390   Biso      1.000     O          -0.599107           
         O12       1.0000    0.54094   0.87792   0.21580   Biso      1.000     O          -0.541998           
         O13       1.0000    0.07724   0.46892   0.23760   Biso      1.000     O          -0.538604           
         O14       1.0000    0.49444   0.00822   0.30910   Biso      1.000     O          -0.569951           
         O15       1.0000    0.09451   0.39819   0.02459   Biso      1.000     O          -0.577201           
         O16       1.0000    0.17008   0.28465   0.91279   Biso      1.000     O          -0.576317           
         O17       1.0000    0.18047   0.13296   0.76610   Biso      1.000     O          -0.599276           
         O18       1.0000    0.21624   0.96892   0.73760   Biso      1.000     O          -0.543656           
         O19       1.0000    0.63466   0.62208   0.28420   Biso      1.000     O          -0.541495           
         O20       1.0000    0.81176   0.49178   0.19090   Biso      1.000     O          -0.566284           
         O21       1.0000    0.51729   0.10181   0.47541   Biso      1.000     O          -0.576242           
         O22       1.0000    0.36752   0.21535   0.58721   Biso      1.000     O          -0.575735           
         O23       1.0000    0.92276   0.53108   0.76240   Biso      1.000     O          -0.541983           
         O24       1.0000    0.92047   0.63296   0.26610   Biso      1.000     O          -0.577429 