
##########################################################################
#               Crystallographic Information Format file
#               Produced by PyCifRW module
#
#  This is a CIF file.  CIF has been adopted by the International
#  Union of Crystallography as the standard for data archiving and
#  transmission.
#
#  For information on this file format, follow the CIF links at
#  http://www.iucr.org
##########################################################################

data_image0

_cell_length_a                          10.8267
_cell_length_b                          13.5046
_cell_length_c                          14.4436
_cell_angle_alpha                       76.4566
_cell_angle_beta                        67.9886
_cell_angle_gamma                       66.3685
_symmetry_space_group_name_H-M          'P 1'
_symmetry_int_tables_number             1
loop_
  _symmetry_equiv_pos_as_xyz
         'x, y, z' 
loop_
  _atom_site_label
  _atom_site_occupancy
  _atom_site_fract_x
  _atom_site_fract_y
  _atom_site_fract_z
  _atom_site_thermal_displace_type
  _atom_site_B_iso_or_equiv
  _atom_site_type_symbol
  _atom_site_charge
         C1        1.0000    0.50505   0.45595   0.20415   Biso      1.000     C          0.60201   
         C2        1.0000    0.50144   0.47811   0.09841   Biso      1.000     C          -0.020975999999999998         
         C3        1.0000    0.20169   0.88856   0.45686   Biso      1.000     C          -0.100026           
         C4        1.0000    0.98362   0.97516   0.74040   Biso      1.000     C          0.615372  
         C5        1.0000    0.79831   0.11144   0.54314   Biso      1.000     C          -0.10003300000000001          
         C6        1.0000    0.87139   0.03163   0.60339   Biso      1.000     C          -0.101063           
         C7        1.0000    0.89576   0.05984   0.67944   Biso      1.000     C          -0.017202000000000002         
         C8        1.0000    0.59588   0.40485   0.02919   Biso      1.000     C          -0.107823           
         C9        1.0000    0.84395   0.16804   0.69626   Biso      1.000     C          -0.100941           
         C10       1.0000    0.74593   0.21921   0.56073   Biso      1.000     C          -0.037569           
         C11       1.0000    0.66800   0.30514   0.49606   Biso      1.000     C          0.6257060000000001  
         C12       1.0000    0.54747   0.92686   0.43060   Biso      1.000     C          -0.10600899999999999          
         C13       1.0000    0.52992   0.09515   0.47081   Biso      1.000     C          -0.10673099999999999          
         C14       1.0000    0.57796   0.02189   0.40159   Biso      1.000     C          -0.016880000000000003         
         C15       1.0000    0.66515   0.04405   0.29585   Biso      1.000     C          0.598866  
         C16       1.0000    0.76710   0.24758   0.63862   Biso      1.000     C          -0.10040700000000001          
         C17       1.0000    0.19918   0.52484   0.75960   Biso      1.000     C          0.616664  
         C18       1.0000    0.40493   0.57314   0.06940   Biso      1.000     C          -0.10279400000000001          
         C19       1.0000    0.97413   0.71921   0.06073   Biso      1.000     C          -0.033761           
         C20       1.0000    0.15605   0.83196   0.30374   Biso      1.000     C          -0.10093099999999999          
         C21       1.0000    0.23290   0.75242   0.36138   Biso      1.000     C          -0.10040199999999999          
         C22       1.0000    0.25407   0.78079   0.43927   Biso      1.000     C          -0.037565           
         C23       1.0000    0.33200   0.69486   0.50394   Biso      1.000     C          0.625707  
         C24       1.0000    0.45253   0.07314   0.56940   Biso      1.000     C          -0.10601700000000001          
         C25       1.0000    0.47008   0.90485   0.52919   Biso      1.000     C          -0.10673900000000001          
         C26       1.0000    0.03080   0.80514   0.99606   Biso      1.000     C          0.620428  
         C27       1.0000    0.42204   0.97811   0.59841   Biso      1.000     C          -0.016859           
         C28       1.0000    0.80082   0.47516   0.24040   Biso      1.000     C          0.616665  
         C29       1.0000    0.04711   0.61144   0.04314   Biso      1.000     C          -0.097362           
         C30       1.0000    0.99359   0.53163   0.10339   Biso      1.000     C          -0.102265           
         C31       1.0000    0.86496   0.55984   0.17944   Biso      1.000     C          -0.018908           
         C32       1.0000    0.79175   0.66804   0.19626   Biso      1.000     C          -0.102527           
         C33       1.0000    0.84670   0.74758   0.13862   Biso      1.000     C          -0.102373           
         C34       1.0000    0.33485   0.95595   0.70415   Biso      1.000     C          0.598851  
         C35       1.0000    0.95289   0.38856   0.95686   Biso      1.000     C          -0.09736900000000001          
         C36       1.0000    0.00641   0.46837   0.89661   Biso      1.000     C          -0.102259           
         C37       1.0000    0.13504   0.44016   0.82056   Biso      1.000     C          -0.018913           
         C38       1.0000    0.59507   0.42686   0.93060   Biso      1.000     C          -0.10278699999999999          
         C39       1.0000    0.40412   0.59515   0.97081   Biso      1.000     C          -0.107824           
         C40       1.0000    0.49856   0.52189   0.90159   Biso      1.000     C          -0.020978999999999998         
         C41       1.0000    0.49495   0.54405   0.79585   Biso      1.000     C          0.602009  
         C42       1.0000    0.01638   0.02484   0.25960   Biso      1.000     C          0.6153810000000001  
         C43       1.0000    0.10424   0.94016   0.32056   Biso      1.000     C          -0.017207           
         C44       1.0000    0.12861   0.96837   0.39661   Biso      1.000     C          -0.10105399999999999          
         C45       1.0000    0.20825   0.33196   0.80374   Biso      1.000     C          -0.102527           
         C46       1.0000    0.15330   0.25242   0.86138   Biso      1.000     C          -0.102366           
         C47       1.0000    0.02587   0.28079   0.93927   Biso      1.000     C          -0.033759           
         C48       1.0000    0.96920   0.19486   0.00394   Biso      1.000     C          0.620422  
         H1        1.0000    0.09600   0.04100   0.40760   Biso      1.000     H          0.120423  
         H2        1.0000    0.65950   0.37780   0.88400   Biso      1.000     H          0.12063099999999999           
         H3        1.0000    0.20160   0.18030   0.84790   Biso      1.000     H          0.118925  
         H4        1.0000    0.29530   0.31240   0.75320   Biso      1.000     H          0.120877  
         H5        1.0000    0.95540   0.54100   0.90760   Biso      1.000     H          0.12169   
         H6        1.0000    0.86770   0.40790   0.00910   Biso      1.000     H          0.114501  
         H7        1.0000    0.54950   0.15940   0.45120   Biso      1.000     H          0.11348399999999999           
         H8        1.0000    0.57870   0.87780   0.38400   Biso      1.000     H          0.12108800000000002           
         H9        1.0000    0.72980   0.31970   0.65210   Biso      1.000     H          0.11926500000000001           
         H10       1.0000    0.86090   0.18760   0.74680   Biso      1.000     H          0.119019  
         H11       1.0000    0.90400   0.95900   0.59240   Biso      1.000     H          0.120413  
         H12       1.0000    0.78470   0.09210   0.49090   Biso      1.000     H          0.11645   
         H13       1.0000    0.66010   0.34060   0.04880   Biso      1.000     H          0.11407   
         H14       1.0000    0.33990   0.65940   0.95120   Biso      1.000     H          0.114071  
         H15       1.0000    0.79840   0.81970   0.15210   Biso      1.000     H          0.11892899999999999           
         H16       1.0000    0.70470   0.68760   0.24680   Biso      1.000     H          0.120879  
         H17       1.0000    0.04460   0.45900   0.09240   Biso      1.000     H          0.121706  
         H18       1.0000    0.13230   0.59210   0.99090   Biso      1.000     H          0.114501  
         H19       1.0000    0.45050   0.84060   0.54880   Biso      1.000     H          0.11348599999999999           
         H20       1.0000    0.42130   0.12220   0.61600   Biso      1.000     H          0.12108599999999999           
         H21       1.0000    0.27020   0.68030   0.34790   Biso      1.000     H          0.11926500000000001           
         H22       1.0000    0.13910   0.81240   0.25320   Biso      1.000     H          0.119021  
         H23       1.0000    0.21530   0.90790   0.50910   Biso      1.000     H          0.11645   
         H24       1.0000    0.34050   0.62220   0.11600   Biso      1.000     H          0.12063099999999999           
         Mn1       1.0000    0.86036   0.03813   0.11107   Biso      1.000     Mn          1.016392  
         Mn2       1.0000    0.21445   0.75000   0.75000   Biso      1.000     Mn          1.134258  
         Mn3       1.0000    0.78555   0.25000   0.25000   Biso      1.000     Mn          1.134293  
         Mn4       1.0000    0.49044   0.53813   0.61107   Biso      1.000     Mn          1.017889  
         Mn5       1.0000    0.13964   0.96187   0.88893   Biso      1.000     Mn          1.016335  
         Mn6       1.0000    0.50956   0.46187   0.38893   Biso      1.000     Mn          1.017883  
         O1        1.0000    0.00358   0.99115   0.19129   Biso      1.000     O          -0.57285  
         O2        1.0000    0.96057   0.12069   0.28257   Biso      1.000     O          -0.570645           
         O3        1.0000    0.32671   0.71589   0.58627   Biso      1.000     O          -0.5800609999999999           
         O4        1.0000    0.40550   0.60131   0.47555   Biso      1.000     O          -0.576171           
         O5        1.0000    0.28433   0.02754   0.76280   Biso      1.000     O          -0.550395           
         O6        1.0000    0.31477   0.86676   0.73170   Biso      1.000     O          -0.5962350000000001           
         O7        1.0000    0.68602   0.50885   0.30871   Biso      1.000     O          -0.57506  
         O8        1.0000    0.86383   0.37931   0.21743   Biso      1.000     O          -0.569926           
         O9        1.0000    0.12887   0.78411   0.91373   Biso      1.000     O          -0.578151           
         O10       1.0000    0.98236   0.89869   0.02445   Biso      1.000     O          -0.573963           
         O11       1.0000    0.42533   0.52754   0.26280   Biso      1.000     O          -0.550666           
         O12       1.0000    0.99642   0.00885   0.80871   Biso      1.000     O          -0.572857           
         O13       1.0000    0.41323   0.63324   0.76830   Biso      1.000     O          -0.5982569999999999           
         O14       1.0000    0.03943   0.87931   0.71743   Biso      1.000     O          -0.570652           
         O15       1.0000    0.67329   0.28411   0.41373   Biso      1.000     O          -0.5800649999999999           
         O16       1.0000    0.59450   0.39869   0.52445   Biso      1.000     O          -0.576171           
         O17       1.0000    0.71567   0.97246   0.23720   Biso      1.000     O          -0.5503979999999999           
         O18       1.0000    0.68523   0.13324   0.26830   Biso      1.000     O          -0.596236           
         O19       1.0000    0.31398   0.49115   0.69129   Biso      1.000     O          -0.575066           
         O20       1.0000    0.13617   0.62069   0.78257   Biso      1.000     O          -0.569923           
         O21       1.0000    0.87113   0.21589   0.08627   Biso      1.000     O          -0.5781649999999999           
         O22       1.0000    0.01764   0.10131   0.97555   Biso      1.000     O          -0.57395  
         O23       1.0000    0.58677   0.36676   0.23170   Biso      1.000     O          -0.598258           
         O24       1.0000    0.57467   0.47246   0.73720   Biso      1.000     O          -0.550667 