
##########################################################################
#               Crystallographic Information Format file
#               Produced by PyCifRW module
#
#  This is a CIF file.  CIF has been adopted by the International
#  Union of Crystallography as the standard for data archiving and
#  transmission.
#
#  For information on this file format, follow the CIF links at
#  http://www.iucr.org
##########################################################################

data_image0

_cell_length_a                          10.7964
_cell_length_b                          13.4996
_cell_length_c                          14.4274
_cell_angle_alpha                       76.5263
_cell_angle_beta                        68.0275
_cell_angle_gamma                       66.4295
_symmetry_space_group_name_H-M          'P 1'
_symmetry_int_tables_number             1
loop_
  _symmetry_equiv_pos_as_xyz
         'x, y, z' 
loop_
  _atom_site_label
  _atom_site_occupancy
  _atom_site_fract_x
  _atom_site_fract_y
  _atom_site_fract_z
  _atom_site_thermal_displace_type
  _atom_site_B_iso_or_equiv
  _atom_site_type_symbol
  _atom_site_charge
         C1        1.0000    0.50367   0.45594   0.20452   Biso      1.000     C          0.597165  
         C2        1.0000    0.50059   0.47827   0.09875   Biso      1.000     C          -0.016622           
         C3        1.0000    0.20201   0.88862   0.45696   Biso      1.000     C          -0.098463           
         C4        1.0000    0.98428   0.97504   0.74040   Biso      1.000     C          0.613515  
         C5        1.0000    0.79799   0.11138   0.54304   Biso      1.000     C          -0.098472           
         C6        1.0000    0.87115   0.03158   0.60332   Biso      1.000     C          -0.101266           
         C7        1.0000    0.89566   0.05983   0.67945   Biso      1.000     C          -0.019388           
         C8        1.0000    0.59513   0.40432   0.02962   Biso      1.000     C          -0.107578           
         C9        1.0000    0.84420   0.16788   0.69652   Biso      1.000     C          -0.100945           
         C10       1.0000    0.74591   0.21898   0.56080   Biso      1.000     C          -0.035408           
         C11       1.0000    0.66774   0.30505   0.49607   Biso      1.000     C          0.622874  
         C12       1.0000    0.54750   0.92648   0.43072   Biso      1.000     C          -0.102596           
         C13       1.0000    0.52907   0.09568   0.47038   Biso      1.000     C          -0.107695           
         C14       1.0000    0.57761   0.02173   0.40125   Biso      1.000     C          -0.016591           
         C15       1.0000    0.66413   0.04406   0.29548   Biso      1.000     C          0.595887  
         C16       1.0000    0.76682   0.24750   0.63886   Biso      1.000     C          -0.102188           
         C17       1.0000    0.19972   0.52496   0.75960   Biso      1.000     C          0.614609  
         C18       1.0000    0.40470   0.57352   0.06928   Biso      1.000     C          -0.104436           
         C19       1.0000    0.97431   0.71898   0.06080   Biso      1.000     C          -0.035864           
         C20       1.0000    0.15580   0.83212   0.30348   Biso      1.000     C          -0.100963           
         C21       1.0000    0.23318   0.75250   0.36114   Biso      1.000     C          -0.102181           
         C22       1.0000    0.25409   0.78102   0.43920   Biso      1.000     C          -0.03545  
         C23       1.0000    0.33226   0.69495   0.50393   Biso      1.000     C          0.622896  
         C24       1.0000    0.45250   0.07352   0.56928   Biso      1.000     C          -0.102586           
         C25       1.0000    0.47093   0.90432   0.52962   Biso      1.000     C          -0.107684           
         C26       1.0000    0.03114   0.80505   0.99607   Biso      1.000     C          0.622682  
         C27       1.0000    0.42239   0.97827   0.59875   Biso      1.000     C          -0.016642           
         C28       1.0000    0.80028   0.47504   0.24040   Biso      1.000     C          0.614586  
         C29       1.0000    0.04759   0.61138   0.04304   Biso      1.000     C          -0.096008           
         C30       1.0000    0.99395   0.53158   0.10332   Biso      1.000     C          -0.103587           
         C31       1.0000    0.86506   0.55983   0.17945   Biso      1.000     C          -0.018205           
         C32       1.0000    0.79140   0.66788   0.19652   Biso      1.000     C          -0.103429           
         C33       1.0000    0.84682   0.74750   0.13886   Biso      1.000     C          -0.101735           
         C34       1.0000    0.33587   0.95594   0.70452   Biso      1.000     C          0.595928  
         C35       1.0000    0.95241   0.38862   0.95696   Biso      1.000     C          -0.096021           
         C36       1.0000    0.00605   0.46842   0.89668   Biso      1.000     C          -0.103574           
         C37       1.0000    0.13494   0.44017   0.82055   Biso      1.000     C          -0.018246           
         C38       1.0000    0.59530   0.42648   0.93072   Biso      1.000     C          -0.104428           
         C39       1.0000    0.40487   0.59568   0.97038   Biso      1.000     C          -0.107567           
         C40       1.0000    0.49941   0.52173   0.90125   Biso      1.000     C          -0.016666           
         C41       1.0000    0.49633   0.54406   0.79548   Biso      1.000     C          0.597202  
         C42       1.0000    0.01572   0.02496   0.25960   Biso      1.000     C          0.613489  
         C43       1.0000    0.10434   0.94017   0.32055   Biso      1.000     C          -0.019346           
         C44       1.0000    0.12885   0.96842   0.39668   Biso      1.000     C          -0.101284           
         C45       1.0000    0.20860   0.33212   0.80348   Biso      1.000     C          -0.103414           
         C46       1.0000    0.15318   0.25250   0.86114   Biso      1.000     C          -0.101748           
         C47       1.0000    0.02569   0.28102   0.93920   Biso      1.000     C          -0.035816           
         C48       1.0000    0.96886   0.19495   0.00393   Biso      1.000     C          0.622657  
         H1        1.0000    0.09640   0.04100   0.40760   Biso      1.000     H          0.121462  
         H2        1.0000    0.66000   0.37730   0.88410   Biso      1.000     H          0.120783  
         H3        1.0000    0.20130   0.18030   0.84750   Biso      1.000     H          0.119107  
         H4        1.0000    0.29590   0.31260   0.75300   Biso      1.000     H          0.120955  
         H5        1.0000    0.95500   0.54100   0.90760   Biso      1.000     H          0.122288  
         H6        1.0000    0.86710   0.40780   0.00920   Biso      1.000     H          0.114137  
         H7        1.0000    0.54800   0.16020   0.45040   Biso      1.000     H          0.113277  
         H8        1.0000    0.57860   0.87730   0.38410   Biso      1.000     H          0.120343  
         H9        1.0000    0.72910   0.31970   0.65250   Biso      1.000     H          0.11882   
         H10       1.0000    0.86150   0.18740   0.74700   Biso      1.000     H          0.119067  
         H11       1.0000    0.90360   0.95900   0.59240   Biso      1.000     H          0.121472  
         H12       1.0000    0.78410   0.09220   0.49080   Biso      1.000     H          0.115774  
         H13       1.0000    0.65860   0.33980   0.04960   Biso      1.000     H          0.114047  
         H14       1.0000    0.34140   0.66020   0.95040   Biso      1.000     H          0.11405   
         H15       1.0000    0.79870   0.81970   0.15250   Biso      1.000     H          0.1191    
         H16       1.0000    0.70410   0.68740   0.24700   Biso      1.000     H          0.120954  
         H17       1.0000    0.04500   0.45900   0.09240   Biso      1.000     H          0.122275  
         H18       1.0000    0.13290   0.59220   0.99080   Biso      1.000     H          0.114142  
         H19       1.0000    0.45200   0.83980   0.54960   Biso      1.000     H          0.11328   
         H20       1.0000    0.42140   0.12270   0.61590   Biso      1.000     H          0.120344  
         H21       1.0000    0.27090   0.68030   0.34750   Biso      1.000     H          0.118812  
         H22       1.0000    0.13850   0.81260   0.25300   Biso      1.000     H          0.119067  
         H23       1.0000    0.21590   0.90780   0.50920   Biso      1.000     H          0.115778  
         H24       1.0000    0.34000   0.62270   0.11590   Biso      1.000     H          0.120782  
         Mn1       1.0000    0.85968   0.03834   0.11070   Biso      1.000     Mn          1.017441  
         Mn2       1.0000    0.21512   0.75000   0.75000   Biso      1.000     Mn          1.130521  
         Mn3       1.0000    0.78488   0.25000   0.25000   Biso      1.000     Mn          1.130451  
         Mn4       1.0000    0.49128   0.53834   0.61070   Biso      1.000     Mn          1.017442  
         Mn5       1.0000    0.14032   0.96166   0.88930   Biso      1.000     Mn          1.017473  
         Mn6       1.0000    0.50872   0.46166   0.38930   Biso      1.000     Mn          1.017416  
         O1        1.0000    0.00271   0.99133   0.19145   Biso      1.000     O          -0.570755           
         O2        1.0000    0.96022   0.12085   0.28279   Biso      1.000     O          -0.569581           
         O3        1.0000    0.32713   0.71591   0.58631   Biso      1.000     O          -0.578954           
         O4        1.0000    0.40519   0.60129   0.47569   Biso      1.000     O          -0.574863           
         O5        1.0000    0.28552   0.02753   0.76343   Biso      1.000     O          -0.550978           
         O6        1.0000    0.31569   0.86669   0.73231   Biso      1.000     O          -0.593684           
         O7        1.0000    0.68549   0.50867   0.30855   Biso      1.000     O          -0.571769           
         O8        1.0000    0.86386   0.37915   0.21721   Biso      1.000     O          -0.569853           
         O9        1.0000    0.12935   0.78409   0.91369   Biso      1.000     O          -0.578518           
         O10       1.0000    0.98217   0.89871   0.02431   Biso      1.000     O          -0.574866           
         O11       1.0000    0.42352   0.52753   0.26343   Biso      1.000     O          -0.551001           
         O12       1.0000    0.99729   0.00867   0.80855   Biso      1.000     O          -0.57076  
         O13       1.0000    0.41469   0.63331   0.76769   Biso      1.000     O          -0.595318           
         O14       1.0000    0.03978   0.87915   0.71721   Biso      1.000     O          -0.569576           
         O15       1.0000    0.67287   0.28409   0.41369   Biso      1.000     O          -0.578941           
         O16       1.0000    0.59481   0.39871   0.52431   Biso      1.000     O          -0.574868           
         O17       1.0000    0.71448   0.97247   0.23657   Biso      1.000     O          -0.55097  
         O18       1.0000    0.68431   0.13331   0.26769   Biso      1.000     O          -0.593681           
         O19       1.0000    0.31451   0.49133   0.69145   Biso      1.000     O          -0.571774           
         O20       1.0000    0.13614   0.62085   0.78279   Biso      1.000     O          -0.569853           
         O21       1.0000    0.87065   0.21591   0.08631   Biso      1.000     O          -0.578508           
         O22       1.0000    0.01783   0.10129   0.97569   Biso      1.000     O          -0.574868           
         O23       1.0000    0.58531   0.36669   0.23231   Biso      1.000     O          -0.595307           
         O24       1.0000    0.57648   0.47247   0.73657   Biso      1.000     O          -0.551016 