
##########################################################################
#               Crystallographic Information Format file
#               Produced by PyCifRW module
#
#  This is a CIF file.  CIF has been adopted by the International
#  Union of Crystallography as the standard for data archiving and
#  transmission.
#
#  For information on this file format, follow the CIF links at
#  http://www.iucr.org
##########################################################################

data_image0

_cell_length_a                          10.6527
_cell_length_b                          13.5339
_cell_length_c                          14.3994
_cell_angle_alpha                       76.9404
_cell_angle_beta                        68.2904
_cell_angle_gamma                       66.824
_symmetry_space_group_name_H-M          'P 1'
_symmetry_int_tables_number             1
loop_
  _symmetry_equiv_pos_as_xyz
         'x, y, z' 
loop_
  _atom_site_label
  _atom_site_occupancy
  _atom_site_fract_x
  _atom_site_fract_y
  _atom_site_fract_z
  _atom_site_thermal_displace_type
  _atom_site_B_iso_or_equiv
  _atom_site_type_symbol
  _atom_site_charge
         C1        1.0000    0.15752   0.54418   0.79250   Biso      1.000     C          0.596205  
         C2        1.0000    0.07442   0.52175   0.89969   Biso      1.000     C          -0.02536  
         C3        1.0000    0.55154   0.10966   0.54262   Biso      1.000     C          -0.082115           
         C4        1.0000    0.70174   0.02568   0.26056   Biso      1.000     C          0.61301   
         C5        1.0000    0.44846   0.89034   0.45738   Biso      1.000     C          -0.082117           
         C6        1.0000    0.50266   0.97008   0.39692   Biso      1.000     C          -0.092227           
         C7        1.0000    0.63494   0.94180   0.32070   Biso      1.000     C          -0.028473000000000002         
         C8        1.0000    0.02563   0.59764   0.96828   Biso      1.000     C          -0.098199           
         C9        1.0000    0.70989   0.83309   0.30293   Biso      1.000     C          -0.0909   
         C10       1.0000    0.52383   0.78189   0.43935   Biso      1.000     C          -0.047219           
         C11       1.0000    0.46739   0.69551   0.50445   Biso      1.000     C          0.621512  
         C12       1.0000    0.90411   0.07579   0.56875   Biso      1.000     C          -0.089212           
         C13       1.0000    0.09155   0.90236   0.53172   Biso      1.000     C          -0.098384           
         C14       1.0000    0.99586   0.97825   0.60031   Biso      1.000     C          -0.027888           
         C15       1.0000    0.99420   0.95582   0.70750   Biso      1.000     C          0.596724  
         C16       1.0000    0.65365   0.75356   0.36050   Biso      1.000     C          -0.096065           
         C17       1.0000    0.48798   0.47432   0.23944   Biso      1.000     C          0.613793  
         C18       1.0000    0.04865   0.42421   0.93125   Biso      1.000     C          -0.091025           
         C19       1.0000    0.75493   0.28189   0.93935   Biso      1.000     C          -0.04518  
         C20       1.0000    0.29011   0.16691   0.69707   Biso      1.000     C          -0.090902           
         C21       1.0000    0.34635   0.24644   0.63950   Biso      1.000     C          -0.096066           
         C22       1.0000    0.47617   0.21811   0.56065   Biso      1.000     C          -0.047214           
         C23       1.0000    0.53261   0.30449   0.49555   Biso      1.000     C          0.621499  
         C24       1.0000    0.09589   0.92421   0.43125   Biso      1.000     C          -0.089212           
         C25       1.0000    0.90845   0.09764   0.46828   Biso      1.000     C          -0.09838  
         C26       1.0000    0.83265   0.19551   0.00445   Biso      1.000     C          0.6194430000000001  
         C27       1.0000    0.00414   0.02175   0.39969   Biso      1.000     C          -0.027875999999999998         
         C28       1.0000    0.51202   0.52568   0.76056   Biso      1.000     C          0.613809  
         C29       1.0000    0.70382   0.39034   0.95738   Biso      1.000     C          -0.083177           
         C30       1.0000    0.63034   0.47008   0.89692   Biso      1.000     C          -0.090009           
         C31       1.0000    0.60256   0.44180   0.82070   Biso      1.000     C          -0.029105000000000002         
         C32       1.0000    0.65409   0.33309   0.80293   Biso      1.000     C          -0.09207  
         C33       1.0000    0.73229   0.25356   0.86050   Biso      1.000     C          -0.097653           
         C34       1.0000    0.00580   0.04418   0.29250   Biso      1.000     C          0.596715  
         C35       1.0000    0.29618   0.60966   0.04262   Biso      1.000     C          -0.083186           
         C36       1.0000    0.36966   0.52992   0.10308   Biso      1.000     C          -0.090015           
         C37       1.0000    0.39744   0.55820   0.17930   Biso      1.000     C          -0.029105000000000002         
         C38       1.0000    0.95135   0.57579   0.06875   Biso      1.000     C          -0.091022           
         C39       1.0000    0.97437   0.40236   0.03172   Biso      1.000     C          -0.098196           
         C40       1.0000    0.92558   0.47825   0.10031   Biso      1.000     C          -0.025351           
         C41       1.0000    0.84248   0.45582   0.20750   Biso      1.000     C          0.596183  
         C42       1.0000    0.29826   0.97432   0.73944   Biso      1.000     C          0.6130140000000001  
         C43       1.0000    0.36506   0.05820   0.67930   Biso      1.000     C          -0.028477999999999996         
         C44       1.0000    0.49734   0.02992   0.60308   Biso      1.000     C          -0.092231           
         C45       1.0000    0.34591   0.66691   0.19707   Biso      1.000     C          -0.09207699999999999          
         C46       1.0000    0.26771   0.74644   0.13950   Biso      1.000     C          -0.097664           
         C47       1.0000    0.24507   0.71811   0.06065   Biso      1.000     C          -0.045188           
         C48       1.0000    0.16735   0.80449   0.99555   Biso      1.000     C          0.619446  
         H1        1.0000    0.55789   0.94573   0.59061   Biso      1.000     H          0.11677699999999999           
         H2        1.0000    0.91292   0.63484   0.12170   Biso      1.000     H          0.112649  
         H3        1.0000    0.22436   0.83002   0.15566   Biso      1.000     H          0.115952  
         H4        1.0000    0.36580   0.68948   0.25656   Biso      1.000     H          0.111954  
         H5        1.0000    0.40577   0.44573   0.09061   Biso      1.000     H          0.11632999999999999           
         H6        1.0000    0.27921   0.58720   0.98172   Biso      1.000     H          0.106629  
         H7        1.0000    0.16137   0.82613   0.55683   Biso      1.000     H          0.10716300000000001           
         H8        1.0000    0.83054   0.13484   0.62170   Biso      1.000     H          0.112357  
         H9        1.0000    0.71004   0.66998   0.34434   Biso      1.000     H          0.116389  
         H10       1.0000    0.81184   0.81052   0.24344   Biso      1.000     H          0.110838  
         H11       1.0000    0.44211   0.05427   0.40939   Biso      1.000     H          0.116783  
         H12       1.0000    0.34813   0.91280   0.51828   Biso      1.000     H          0.106512  
         H13       1.0000    0.04433   0.67387   0.94317   Biso      1.000     H          0.10667599999999999           
         H14       1.0000    0.95567   0.32613   0.05683   Biso      1.000     H          0.10667599999999999           
         H15       1.0000    0.77564   0.16998   0.84434   Biso      1.000     H          0.11595499999999999           
         H16       1.0000    0.63420   0.31052   0.74344   Biso      1.000     H          0.11196099999999999           
         H17       1.0000    0.59423   0.55427   0.90939   Biso      1.000     H          0.11633199999999999           
         H18       1.0000    0.72079   0.41280   0.01828   Biso      1.000     H          0.10663199999999999           
         H19       1.0000    0.83863   0.17387   0.44317   Biso      1.000     H          0.10715999999999999           
         H20       1.0000    0.16946   0.86516   0.37830   Biso      1.000     H          0.11236099999999999           
         H21       1.0000    0.28996   0.33002   0.65566   Biso      1.000     H          0.11639100000000001           
         H22       1.0000    0.18816   0.18948   0.75656   Biso      1.000     H          0.110838  
         H23       1.0000    0.65187   0.08720   0.48172   Biso      1.000     H          0.106512  
         H24       1.0000    0.08708   0.36516   0.87830   Biso      1.000     H          0.11265   
         Mn1       1.0000    0.00328   0.96031   0.89137   Biso      1.000     Mn          1.019975  
         Mn2       1.0000    0.72021   0.25000   0.25000   Biso      1.000     Mn          1.135817  
         Mn3       1.0000    0.27979   0.75000   0.75000   Biso      1.000     Mn          1.135831  
         Mn4       1.0000    0.64504   0.46031   0.39137   Biso      1.000     Mn          1.0207959999999998  
         Mn5       1.0000    0.99672   0.03969   0.10863   Biso      1.000     Mn          1.0199790000000002  
         Mn6       1.0000    0.35496   0.53969   0.60863   Biso      1.000     Mn          1.020857  
         O1        1.0000    0.18059   0.00815   0.80751   Biso      1.000     O          -0.572322           
         O2        1.0000    0.36281   0.87827   0.71543   Biso      1.000     O          -0.568317           
         O3        1.0000    0.63348   0.28300   0.41350   Biso      1.000     O          -0.577996           
         O4        1.0000    0.48106   0.39862   0.52400   Biso      1.000     O          -0.575164           
         O5        1.0000    0.08863   0.97285   0.23271   Biso      1.000     O          -0.54848  
         O6        1.0000    0.92436   0.13410   0.26374   Biso      1.000     O          -0.5947399999999999           
         O7        1.0000    0.49625   0.49185   0.69249   Biso      1.000     O          -0.571802           
         O8        1.0000    0.45651   0.62173   0.78457   Biso      1.000     O          -0.5695899999999999           
         O9        1.0000    0.82998   0.21700   0.08650   Biso      1.000     O          -0.577266           
         O10       1.0000    0.90368   0.10138   0.97600   Biso      1.000     O          -0.573707           
         O11       1.0000    0.20581   0.47285   0.73271   Biso      1.000     O          -0.5485479999999999           
         O12       1.0000    0.81941   0.99185   0.19249   Biso      1.000     O          -0.572326           
         O13       1.0000    0.82220   0.36590   0.23626   Biso      1.000     O          -0.595321           
         O14       1.0000    0.63719   0.12173   0.28457   Biso      1.000     O          -0.568321           
         O15       1.0000    0.36652   0.71700   0.58650   Biso      1.000     O          -0.578015           
         O16       1.0000    0.51894   0.60138   0.47600   Biso      1.000     O          -0.5751539999999999           
         O17       1.0000    0.91137   0.02715   0.76729   Biso      1.000     O          -0.548478           
         O18       1.0000    0.07564   0.86590   0.73626   Biso      1.000     O          -0.594737           
         O19       1.0000    0.50375   0.50815   0.30751   Biso      1.000     O          -0.571802           
         O20       1.0000    0.54349   0.37827   0.21543   Biso      1.000     O          -0.569605           
         O21       1.0000    0.17002   0.78300   0.91350   Biso      1.000     O          -0.57727  
         O22       1.0000    0.09632   0.89862   0.02400   Biso      1.000     O          -0.573702           
         O23       1.0000    0.17780   0.63410   0.76374   Biso      1.000     O          -0.595324           
         O24       1.0000    0.79419   0.52715   0.26729   Biso      1.000     O          -0.548553 