
##########################################################################
#               Crystallographic Information Format file
#               Produced by PyCifRW module
#
#  This is a CIF file.  CIF has been adopted by the International
#  Union of Crystallography as the standard for data archiving and
#  transmission.
#
#  For information on this file format, follow the CIF links at
#  http://www.iucr.org
##########################################################################

data_image0

_cell_length_a                          10.7768
_cell_length_b                          13.5057
_cell_length_c                          14.4248
_cell_angle_alpha                       76.5872
_cell_angle_beta                        68.0652
_cell_angle_gamma                       66.4861
_symmetry_space_group_name_H-M          'P 1'
_symmetry_int_tables_number             1
loop_
  _symmetry_equiv_pos_as_xyz
         'x, y, z' 
loop_
  _atom_site_label
  _atom_site_occupancy
  _atom_site_fract_x
  _atom_site_fract_y
  _atom_site_fract_z
  _atom_site_thermal_displace_type
  _atom_site_B_iso_or_equiv
  _atom_site_type_symbol
  _atom_site_charge
         C1        1.0000    0.50209   0.45594   0.20508   Biso      1.000     C          0.5961420000000001  
         C2        1.0000    0.50018   0.47808   0.09896   Biso      1.000     C          -0.015236000000000001         
         C3        1.0000    0.20239   0.88875   0.45687   Biso      1.000     C          -0.098746           
         C4        1.0000    0.98490   0.97484   0.74016   Biso      1.000     C          0.613889  
         C5        1.0000    0.79761   0.11125   0.54313   Biso      1.000     C          -0.098767           
         C6        1.0000    0.87127   0.03135   0.60331   Biso      1.000     C          -0.10147300000000001          
         C7        1.0000    0.89617   0.05954   0.67952   Biso      1.000     C          -0.019436000000000002         
         C8        1.0000    0.59481   0.40427   0.02991   Biso      1.000     C          -0.108476           
         C9        1.0000    0.84452   0.16760   0.69656   Biso      1.000     C          -0.10018400000000001          
         C10       1.0000    0.74577   0.21903   0.56083   Biso      1.000     C          -0.034743           
         C11       1.0000    0.66777   0.30499   0.49607   Biso      1.000     C          0.622925  
         C12       1.0000    0.54748   0.92635   0.43069   Biso      1.000     C          -0.104448           
         C13       1.0000    0.52899   0.09573   0.47009   Biso      1.000     C          -0.105592           
         C14       1.0000    0.57722   0.02192   0.40104   Biso      1.000     C          -0.017686           
         C15       1.0000    0.66311   0.04406   0.29492   Biso      1.000     C          0.5980850000000001  
         C16       1.0000    0.76691   0.24734   0.63904   Biso      1.000     C          -0.10357999999999999          
         C17       1.0000    0.19990   0.52516   0.75984   Biso      1.000     C          0.612915  
         C18       1.0000    0.40452   0.57365   0.06931   Biso      1.000     C          -0.105254           
         C19       1.0000    0.97437   0.71903   0.06083   Biso      1.000     C          -0.035062           
         C20       1.0000    0.15548   0.83240   0.30344   Biso      1.000     C          -0.100174           
         C21       1.0000    0.23309   0.75266   0.36096   Biso      1.000     C          -0.103578           
         C22       1.0000    0.25423   0.78097   0.43917   Biso      1.000     C          -0.034736           
         C23       1.0000    0.33223   0.69501   0.50393   Biso      1.000     C          0.622904  
         C24       1.0000    0.45252   0.07365   0.56931   Biso      1.000     C          -0.10444  
         C25       1.0000    0.47101   0.90427   0.52991   Biso      1.000     C          -0.105591           
         C26       1.0000    0.03117   0.80499   0.99607   Biso      1.000     C          0.62087   
         C27       1.0000    0.42278   0.97808   0.59896   Biso      1.000     C          -0.017681           
         C28       1.0000    0.80010   0.47484   0.24016   Biso      1.000     C          0.612941  
         C29       1.0000    0.04801   0.61125   0.04313   Biso      1.000     C          -0.09653099999999999          
         C30       1.0000    0.99407   0.53135   0.10331   Biso      1.000     C          -0.10302  
         C31       1.0000    0.86477   0.55954   0.17952   Biso      1.000     C          -0.018751           
         C32       1.0000    0.79132   0.66760   0.19656   Biso      1.000     C          -0.10298900000000001          
         C33       1.0000    0.84671   0.74734   0.13904   Biso      1.000     C          -0.10255399999999999          
         C34       1.0000    0.33689   0.95594   0.70508   Biso      1.000     C          0.598057  
         C35       1.0000    0.95199   0.38875   0.95687   Biso      1.000     C          -0.09655  
         C36       1.0000    0.00593   0.46865   0.89669   Biso      1.000     C          -0.10300799999999999          
         C37       1.0000    0.13523   0.44046   0.82048   Biso      1.000     C          -0.018772           
         C38       1.0000    0.59548   0.42635   0.93069   Biso      1.000     C          -0.10523900000000001          
         C39       1.0000    0.40519   0.59573   0.97009   Biso      1.000     C          -0.108473           
         C40       1.0000    0.49982   0.52192   0.90104   Biso      1.000     C          -0.015246000000000001         
         C41       1.0000    0.49791   0.54406   0.79492   Biso      1.000     C          0.596114  
         C42       1.0000    0.01510   0.02516   0.25984   Biso      1.000     C          0.6139140000000001  
         C43       1.0000    0.10383   0.94046   0.32048   Biso      1.000     C          -0.01942  
         C44       1.0000    0.12873   0.96865   0.39669   Biso      1.000     C          -0.10147300000000001          
         C45       1.0000    0.20868   0.33240   0.80344   Biso      1.000     C          -0.102986           
         C46       1.0000    0.15329   0.25266   0.86096   Biso      1.000     C          -0.102548           
         C47       1.0000    0.02563   0.28097   0.93917   Biso      1.000     C          -0.035057           
         C48       1.0000    0.96883   0.19501   0.00393   Biso      1.000     C          0.620877  
         H1        1.0000    0.09600   0.04120   0.40780   Biso      1.000     H          0.12174700000000001           
         H2        1.0000    0.66010   0.37710   0.88430   Biso      1.000     H          0.12115899999999999           
         H3        1.0000    0.20150   0.18060   0.84720   Biso      1.000     H          0.120229  
         H4        1.0000    0.29610   0.31290   0.75290   Biso      1.000     H          0.120858  
         H5        1.0000    0.95500   0.54120   0.90780   Biso      1.000     H          0.12211099999999998           
         H6        1.0000    0.86640   0.40800   0.00900   Biso      1.000     H          0.114122  
         H7        1.0000    0.54770   0.16030   0.45010   Biso      1.000     H          0.11244000000000001           
         H8        1.0000    0.57850   0.87710   0.38430   Biso      1.000     H          0.120924  
         H9        1.0000    0.72930   0.31940   0.65280   Biso      1.000     H          0.1195    
         H10       1.0000    0.86190   0.18710   0.74710   Biso      1.000     H          0.11932100000000001           
         H11       1.0000    0.90400   0.95880   0.59220   Biso      1.000     H          0.121725  
         H12       1.0000    0.78340   0.09200   0.49100   Biso      1.000     H          0.11539500000000001           
         H13       1.0000    0.65810   0.33970   0.04990   Biso      1.000     H          0.11426099999999999           
         H14       1.0000    0.34190   0.66030   0.95010   Biso      1.000     H          0.114258  
         H15       1.0000    0.79850   0.81940   0.15280   Biso      1.000     H          0.12023699999999998           
         H16       1.0000    0.70390   0.68710   0.24710   Biso      1.000     H          0.12086400000000001           
         H17       1.0000    0.04500   0.45880   0.09220   Biso      1.000     H          0.122135  
         H18       1.0000    0.13360   0.59200   0.99100   Biso      1.000     H          0.114121  
         H19       1.0000    0.45230   0.83970   0.54990   Biso      1.000     H          0.112435  
         H20       1.0000    0.42150   0.12290   0.61570   Biso      1.000     H          0.12092   
         H21       1.0000    0.27070   0.68060   0.34720   Biso      1.000     H          0.11950699999999999           
         H22       1.0000    0.13810   0.81290   0.25290   Biso      1.000     H          0.11933099999999999           
         H23       1.0000    0.21660   0.90800   0.50900   Biso      1.000     H          0.115399  
         H24       1.0000    0.33990   0.62290   0.11570   Biso      1.000     H          0.12115799999999999           
         Mn1       1.0000    0.85899   0.03856   0.11038   Biso      1.000     Mn          1.016899  
         Mn2       1.0000    0.21584   0.75000   0.75000   Biso      1.000     Mn          1.1316629999999999  
         Mn3       1.0000    0.78416   0.25000   0.25000   Biso      1.000     Mn          1.13171   
         Mn4       1.0000    0.49207   0.53856   0.61038   Biso      1.000     Mn          1.0167899999999999  
         Mn5       1.0000    0.14101   0.96144   0.88962   Biso      1.000     Mn          1.016818  
         Mn6       1.0000    0.50793   0.46144   0.38962   Biso      1.000     Mn          1.0167959999999998  
         O1        1.0000    0.00170   0.99143   0.19157   Biso      1.000     O          -0.572717           
         O2        1.0000    0.95966   0.12091   0.28297   Biso      1.000     O          -0.56807  
         O3        1.0000    0.32746   0.71623   0.58627   Biso      1.000     O          -0.5797720000000001           
         O4        1.0000    0.40507   0.60123   0.47585   Biso      1.000     O          -0.5744060000000001           
         O5        1.0000    0.28705   0.02737   0.76393   Biso      1.000     O          -0.549454           
         O6        1.0000    0.31670   0.86654   0.73286   Biso      1.000     O          -0.596539           
         O7        1.0000    0.68470   0.50857   0.30843   Biso      1.000     O          -0.57284  
         O8        1.0000    0.86354   0.37909   0.21703   Biso      1.000     O          -0.566998           
         O9        1.0000    0.12996   0.78377   0.91373   Biso      1.000     O          -0.578005           
         O10       1.0000    0.98215   0.89877   0.02415   Biso      1.000     O          -0.57423  
         O11       1.0000    0.42165   0.52737   0.26393   Biso      1.000     O          -0.54911  
         O12       1.0000    0.99830   0.00857   0.80843   Biso      1.000     O          -0.572734           
         O13       1.0000    0.41610   0.63346   0.76714   Biso      1.000     O          -0.59632  
         O14       1.0000    0.04034   0.87909   0.71703   Biso      1.000     O          -0.5680609999999999           
         O15       1.0000    0.67254   0.28377   0.41373   Biso      1.000     O          -0.579807           
         O16       1.0000    0.59493   0.39877   0.52415   Biso      1.000     O          -0.574421           
         O17       1.0000    0.71295   0.97263   0.23607   Biso      1.000     O          -0.549443           
         O18       1.0000    0.68330   0.13346   0.26714   Biso      1.000     O          -0.5965560000000001           
         O19       1.0000    0.31530   0.49143   0.69157   Biso      1.000     O          -0.57281  
         O20       1.0000    0.13646   0.62091   0.78297   Biso      1.000     O          -0.566963           
         O21       1.0000    0.87004   0.21623   0.08627   Biso      1.000     O          -0.578036           
         O22       1.0000    0.01785   0.10123   0.97585   Biso      1.000     O          -0.574225           
         O23       1.0000    0.58390   0.36654   0.23286   Biso      1.000     O          -0.596357           
         O24       1.0000    0.57835   0.47263   0.73607   Biso      1.000     O          -0.549093 