
##########################################################################
#               Crystallographic Information Format file
#               Produced by PyCifRW module
#
#  This is a CIF file.  CIF has been adopted by the International
#  Union of Crystallography as the standard for data archiving and
#  transmission.
#
#  For information on this file format, follow the CIF links at
#  http://www.iucr.org
##########################################################################

data_image0

_cell_length_a                          10.8542
_cell_length_b                          13.5021
_cell_length_c                          14.4512
_cell_angle_alpha                       76.3767
_cell_angle_beta                        67.942
_cell_angle_gamma                       66.3003
_symmetry_space_group_name_H-M          'P 1'
_symmetry_int_tables_number             1
loop_
  _symmetry_equiv_pos_as_xyz
         'x, y, z' 
loop_
  _atom_site_label
  _atom_site_occupancy
  _atom_site_fract_x
  _atom_site_fract_y
  _atom_site_fract_z
  _atom_site_thermal_displace_type
  _atom_site_B_iso_or_equiv
  _atom_site_type_symbol
  _atom_site_charge
         C1        1.0000    0.50643   0.45586   0.20368   Biso      1.000     C          0.6024689999999999  
         C2        1.0000    0.50189   0.47839   0.09823   Biso      1.000     C          -0.019843           
         C3        1.0000    0.20154   0.88845   0.45667   Biso      1.000     C          -0.100774           
         C4        1.0000    0.98305   0.97533   0.74057   Biso      1.000     C          0.610209  
         C5        1.0000    0.79846   0.11155   0.54333   Biso      1.000     C          -0.10029500000000001          
         C6        1.0000    0.87140   0.03188   0.60352   Biso      1.000     C          -0.10145900000000001          
         C7        1.0000    0.89585   0.06005   0.67945   Biso      1.000     C          -0.015347           
         C8        1.0000    0.59672   0.40500   0.02896   Biso      1.000     C          -0.11018399999999999          
         C9        1.0000    0.84379   0.16819   0.69623   Biso      1.000     C          -0.100802           
         C10       1.0000    0.74605   0.21929   0.56081   Biso      1.000     C          -0.036561           
         C11       1.0000    0.66812   0.30520   0.49604   Biso      1.000     C          0.624508  
         C12       1.0000    0.54732   0.92709   0.43047   Biso      1.000     C          -0.104144           
         C13       1.0000    0.53068   0.09500   0.47104   Biso      1.000     C          -0.10696199999999999          
         C14       1.0000    0.57851   0.02161   0.40177   Biso      1.000     C          -0.016899           
         C15       1.0000    0.66597   0.04414   0.29632   Biso      1.000     C          0.599151  
         C16       1.0000    0.76704   0.24771   0.63841   Biso      1.000     C          -0.101202           
         C17       1.0000    0.19895   0.52467   0.75943   Biso      1.000     C          0.618149  
         C18       1.0000    0.40488   0.57291   0.06953   Biso      1.000     C          -0.101315           
         C19       1.0000    0.97385   0.71929   0.06081   Biso      1.000     C          -0.032907           
         C20       1.0000    0.15621   0.83181   0.30377   Biso      1.000     C          -0.099362           
         C21       1.0000    0.23296   0.75229   0.36159   Biso      1.000     C          -0.101564           
         C22       1.0000    0.25395   0.78071   0.43919   Biso      1.000     C          -0.036256000000000004         
         C23       1.0000    0.33188   0.69480   0.50396   Biso      1.000     C          0.624765  
         C24       1.0000    0.45268   0.07291   0.56953   Biso      1.000     C          -0.10558599999999999          
         C25       1.0000    0.46932   0.90500   0.52896   Biso      1.000     C          -0.10766500000000001          
         C26       1.0000    0.03064   0.80520   0.99604   Biso      1.000     C          0.615625  
         C27       1.0000    0.42149   0.97839   0.59823   Biso      1.000     C          -0.017303           
         C28       1.0000    0.80105   0.47533   0.24057   Biso      1.000     C          0.618065  
         C29       1.0000    0.04666   0.61155   0.04333   Biso      1.000     C          -0.09797  
         C30       1.0000    0.99320   0.53188   0.10352   Biso      1.000     C          -0.101725           
         C31       1.0000    0.86465   0.56005   0.17945   Biso      1.000     C          -0.020562999999999998         
         C32       1.0000    0.79179   0.66819   0.19623   Biso      1.000     C          -0.100525           
         C33       1.0000    0.84684   0.74771   0.13841   Biso      1.000     C          -0.10418399999999998          
         C34       1.0000    0.33403   0.95586   0.70368   Biso      1.000     C          0.5928720000000001  
         C35       1.0000    0.95334   0.38845   0.95667   Biso      1.000     C          -0.098089           
         C36       1.0000    0.00680   0.46812   0.89648   Biso      1.000     C          -0.101908           
         C37       1.0000    0.13535   0.43995   0.82055   Biso      1.000     C          -0.020452           
         C38       1.0000    0.59512   0.42709   0.93047   Biso      1.000     C          -0.101702           
         C39       1.0000    0.40328   0.59500   0.97104   Biso      1.000     C          -0.109503           
         C40       1.0000    0.49811   0.52161   0.90177   Biso      1.000     C          -0.019877000000000002         
         C41       1.0000    0.49357   0.54414   0.79632   Biso      1.000     C          0.60259   
         C42       1.0000    0.01695   0.02467   0.25943   Biso      1.000     C          0.616664  
         C43       1.0000    0.10415   0.93995   0.32055   Biso      1.000     C          -0.017547999999999998         
         C44       1.0000    0.12860   0.96812   0.39648   Biso      1.000     C          -0.101219           
         C45       1.0000    0.20821   0.33181   0.80377   Biso      1.000     C          -0.101212           
         C46       1.0000    0.15316   0.25229   0.86159   Biso      1.000     C          -0.10371  
         C47       1.0000    0.02615   0.28071   0.93919   Biso      1.000     C          -0.031948000000000004         
         C48       1.0000    0.96936   0.19480   0.00396   Biso      1.000     C          0.614736  
         H1        1.0000    0.09590   0.04080   0.40740   Biso      1.000     H          0.12032799999999999           
         H2        1.0000    0.65950   0.37820   0.88380   Biso      1.000     H          0.12021199999999999           
         H3        1.0000    0.20140   0.18010   0.84830   Biso      1.000     H          0.119325  
         H4        1.0000    0.29500   0.31220   0.75320   Biso      1.000     H          0.12002   
         H5        1.0000    0.95590   0.54080   0.90740   Biso      1.000     H          0.12122000000000001           
         H6        1.0000    0.86830   0.40780   0.00880   Biso      1.000     H          0.11396400000000001           
         H7        1.0000    0.55070   0.15900   0.45160   Biso      1.000     H          0.113696  
         H8        1.0000    0.57850   0.87820   0.38380   Biso      1.000     H          0.12068499999999999           
         H9        1.0000    0.72980   0.31990   0.65170   Biso      1.000     H          0.11928499999999999           
         H10       1.0000    0.86040   0.18780   0.74680   Biso      1.000     H          0.119131  
         H11       1.0000    0.90410   0.95920   0.59260   Biso      1.000     H          0.120553  
         H12       1.0000    0.78490   0.09220   0.49120   Biso      1.000     H          0.115907  
         H13       1.0000    0.66130   0.34100   0.04840   Biso      1.000     H          0.114854  
         H14       1.0000    0.33870   0.65900   0.95160   Biso      1.000     H          0.11541300000000002           
         H15       1.0000    0.79860   0.81990   0.15170   Biso      1.000     H          0.11878299999999999           
         H16       1.0000    0.70500   0.68780   0.24680   Biso      1.000     H          0.12016099999999999           
         H17       1.0000    0.04410   0.45920   0.09260   Biso      1.000     H          0.121243  
         H18       1.0000    0.13170   0.59220   0.99120   Biso      1.000     H          0.113863  
         H19       1.0000    0.44930   0.84100   0.54840   Biso      1.000     H          0.113578  
         H20       1.0000    0.42150   0.12180   0.61620   Biso      1.000     H          0.120617  
         H21       1.0000    0.27020   0.68010   0.34830   Biso      1.000     H          0.119224  
         H22       1.0000    0.13960   0.81220   0.25320   Biso      1.000     H          0.118645  
         H23       1.0000    0.21510   0.90780   0.50880   Biso      1.000     H          0.11561300000000001           
         H24       1.0000    0.34050   0.62180   0.11620   Biso      1.000     H          0.12041099999999999           
         Mn1       1.0000    0.86098   0.03794   0.11138   Biso      1.000     Mn          1.017339  
         Mn2       1.0000    0.21379   0.75000   0.75000   Biso      1.000     Mn          1.133284  
         Mn3       1.0000    0.78621   0.25000   0.25000   Biso      1.000     Mn          1.133947  
         Mn4       1.0000    0.48970   0.53794   0.61138   Biso      1.000     Mn          1.018173  
         Mn5       1.0000    0.13902   0.96206   0.88862   Biso      1.000     Mn          0.9003639999999999  
         Mn6       1.0000    0.51030   0.46206   0.38862   Biso      1.000     Mn          1.018259  
         O1        1.0000    0.00429   0.99099   0.19123   Biso      1.000     O          -0.572049           
         O2        1.0000    0.96114   0.12048   0.28248   Biso      1.000     O          -0.5712729999999999           
         O3        1.0000    0.32626   0.71568   0.58626   Biso      1.000     O          -0.5791430000000001           
         O4        1.0000    0.40567   0.60138   0.47542   Biso      1.000     O          -0.576141           
         O5        1.0000    0.28294   0.02773   0.76239   Biso      1.000     O          -0.521991           
         O6        1.0000    0.31374   0.86689   0.73109   Biso      1.000     O          -0.579601           
         O7        1.0000    0.68651   0.50901   0.30877   Biso      1.000     O          -0.5747220000000001           
         O8        1.0000    0.86410   0.37952   0.21752   Biso      1.000     O          -0.570517           
         O9        1.0000    0.12820   0.78432   0.91374   Biso      1.000     O          -0.563297           
         O10       1.0000    0.98247   0.89862   0.02458   Biso      1.000     O          -0.5531010000000001           
         O11       1.0000    0.42694   0.52773   0.26239   Biso      1.000     O          -0.5533359999999999           
         O12       1.0000    0.99571   0.00901   0.80877   Biso      1.000     O          -0.54169  
         O13       1.0000    0.41172   0.63311   0.76891   Biso      1.000     O          -0.5968680000000001           
         O14       1.0000    0.03886   0.87952   0.71752   Biso      1.000     O          -0.57018  
         O15       1.0000    0.67374   0.28432   0.41374   Biso      1.000     O          -0.578783           
         O16       1.0000    0.59433   0.39862   0.52458   Biso      1.000     O          -0.576245           
         O17       1.0000    0.71706   0.97227   0.23761   Biso      1.000     O          -0.5530189999999999           
         O18       1.0000    0.68626   0.13311   0.26891   Biso      1.000     O          -0.595166           
         O19       1.0000    0.31349   0.49099   0.69123   Biso      1.000     O          -0.574659           
         O20       1.0000    0.13590   0.62048   0.78248   Biso      1.000     O          -0.570608           
         O21       1.0000    0.87180   0.21568   0.08626   Biso      1.000     O          -0.577012           
         O22       1.0000    0.01753   0.10138   0.97542   Biso      1.000     O          -0.5496449999999999           
         O23       1.0000    0.58828   0.36689   0.23109   Biso      1.000     O          -0.596887           
         O24       1.0000    0.57306   0.47227   0.73761   Biso      1.000     O          -0.553405 