
##########################################################################
#               Crystallographic Information Format file
#               Produced by PyCifRW module
#
#  This is a CIF file.  CIF has been adopted by the International
#  Union of Crystallography as the standard for data archiving and
#  transmission.
#
#  For information on this file format, follow the CIF links at
#  http://www.iucr.org
##########################################################################

data_image0

_cell_length_a                          10.6727
_cell_length_b                          10.6926
_cell_length_c                          15.7533
_cell_angle_alpha                       95.865
_cell_angle_beta                        90
_cell_angle_gamma                       90
_symmetry_space_group_name_H-M          'P 1'
_symmetry_int_tables_number             1
loop_
  _symmetry_equiv_pos_as_xyz
         'x, y, z' 
loop_
  _atom_site_label
  _atom_site_occupancy
  _atom_site_fract_x
  _atom_site_fract_y
  _atom_site_fract_z
  _atom_site_thermal_displace_type
  _atom_site_B_iso_or_equiv
  _atom_site_type_symbol
  _atom_site_charge
         C1        1.0000    0.90450   0.99310   0.12110   Biso      1.000     C          0.7304930000000001  
         C2        1.0000    0.28140   0.17100   0.72140   Biso      1.000     C          -0.11452000000000001          
         C3        1.0000    0.19570   0.16550   0.78970   Biso      1.000     C          -0.08904400000000001          
         C4        1.0000    0.17860   0.04740   0.81190   Biso      1.000     C          -0.133436           
         C5        1.0000    0.09550   0.00690   0.87890   Biso      1.000     C          0.7304930000000001  
         C6        1.0000    0.08000   0.52410   0.12520   Biso      1.000     C          0.722209  
         C7        1.0000    0.17210   0.55510   0.19400   Biso      1.000     C          -0.134375           
         C8        1.0000    0.32790   0.05510   0.69400   Biso      1.000     C          -0.13436700000000001          
         C9        1.0000    0.30430   0.66550   0.28970   Biso      1.000     C          -0.089045           
         C10       1.0000    0.40450   0.50690   0.37890   Biso      1.000     C          0.7304930000000001  
         C11       1.0000    0.58000   0.97590   0.37480   Biso      1.000     C          0.722209  
         C12       1.0000    0.67210   0.94490   0.30600   Biso      1.000     C          -0.134375           
         C13       1.0000    0.71860   0.82900   0.27860   Biso      1.000     C          -0.11451199999999999          
         C14       1.0000    0.80430   0.83450   0.21030   Biso      1.000     C          -0.089045           
         C15       1.0000    0.82140   0.95260   0.18810   Biso      1.000     C          -0.133435           
         C16       1.0000    0.32140   0.54740   0.31190   Biso      1.000     C          -0.133435           
         C17       1.0000    0.42000   0.02410   0.62520   Biso      1.000     C          0.722208  
         C18       1.0000    0.21860   0.67100   0.22140   Biso      1.000     C          -0.11451199999999999          
         C19       1.0000    0.67860   0.45260   0.68810   Biso      1.000     C          -0.133446           
         C20       1.0000    0.69570   0.33450   0.71030   Biso      1.000     C          -0.089034           
         C21       1.0000    0.78140   0.32900   0.77860   Biso      1.000     C          -0.114521           
         C22       1.0000    0.82790   0.44490   0.80600   Biso      1.000     C          -0.13436700000000001          
         C23       1.0000    0.92000   0.47590   0.87480   Biso      1.000     C          0.722208  
         C24       1.0000    0.59550   0.49310   0.62110   Biso      1.000     C          0.730494  
         H1        1.0000    0.80360   0.25390   0.80230   Biso      1.000     H          0.130365  
         H2        1.0000    0.30360   0.24610   0.69770   Biso      1.000     H          0.130365  
         H3        1.0000    0.15440   0.23730   0.81710   Biso      1.000     H          0.139061  
         H4        1.0000    0.65440   0.26270   0.68290   Biso      1.000     H          0.13906   
         H5        1.0000    0.34560   0.73730   0.31710   Biso      1.000     H          0.139061  
         H6        1.0000    0.69640   0.75390   0.30230   Biso      1.000     H          0.130364  
         H7        1.0000    0.84560   0.76270   0.18290   Biso      1.000     H          0.139061  
         H8        1.0000    0.19640   0.74610   0.19770   Biso      1.000     H          0.130364  
         N1        1.0000    0.26040   0.74920   0.53720   Biso      1.000     N          0.750942  
         N2        1.0000    0.73960   0.25080   0.46280   Biso      1.000     N          0.750942  
         N3        1.0000    0.76040   0.75080   0.96280   Biso      1.000     N          0.750942  
         N4        1.0000    0.23960   0.24920   0.03720   Biso      1.000     N          0.750942  
         O1        1.0000    0.14590   0.75300   0.54840   Biso      1.000     O          -0.401282           
         O2        1.0000    0.44980   0.10970   0.57980   Biso      1.000     O          -0.725538           
         O3        1.0000    0.09140   0.89140   0.88740   Biso      1.000     O          -0.702707           
         O4        1.0000    0.03710   0.41410   0.11680   Biso      1.000     O          -0.684445           
         O5        1.0000    0.46580   0.59010   0.42310   Biso      1.000     O          -0.7125020000000001           
         O6        1.0000    0.18770   0.31090   0.98210   Biso      1.000     O          -0.5359659999999999           
         O7        1.0000    0.16920   0.18480   0.07930   Biso      1.000     O          -0.5298149999999999           
         O8        1.0000    0.96580   0.90990   0.07690   Biso      1.000     O          -0.7125020000000001           
         O9        1.0000    0.05020   0.60970   0.07980   Biso      1.000     O          -0.725538           
         O10       1.0000    0.40860   0.39140   0.38740   Biso      1.000     O          -0.702707           
         O11       1.0000    0.53710   0.08590   0.38320   Biso      1.000     O          -0.684445           
         O12       1.0000    0.85410   0.24700   0.45160   Biso      1.000     O          -0.401282           
         O13       1.0000    0.66920   0.31520   0.42070   Biso      1.000     O          -0.5298149999999999           
         O14       1.0000    0.68770   0.18910   0.51790   Biso      1.000     O          -0.5359659999999999           
         O15       1.0000    0.33080   0.68480   0.57930   Biso      1.000     O          -0.5298149999999999           
         O16       1.0000    0.35410   0.25300   0.04840   Biso      1.000     O          -0.401282           
         O17       1.0000    0.31230   0.81090   0.48210   Biso      1.000     O          -0.5359659999999999           
         O18       1.0000    0.90860   0.10860   0.11260   Biso      1.000     O          -0.702707           
         O19       1.0000    0.46290   0.91410   0.61680   Biso      1.000     O          -0.684445           
         O20       1.0000    0.59140   0.60860   0.61260   Biso      1.000     O          -0.702707           
         O21       1.0000    0.94980   0.39030   0.92020   Biso      1.000     O          -0.725538           
         O22       1.0000    0.64590   0.74700   0.95160   Biso      1.000     O          -0.401282           
         O23       1.0000    0.83080   0.81520   0.92070   Biso      1.000     O          -0.5298149999999999           
         O24       1.0000    0.81230   0.68910   0.01790   Biso      1.000     O          -0.5359659999999999           
         O25       1.0000    0.53420   0.40990   0.57690   Biso      1.000     O          -0.7125020000000001           
         O26       1.0000    0.96290   0.58590   0.88320   Biso      1.000     O          -0.684445           
         O27       1.0000    0.03420   0.09010   0.92310   Biso      1.000     O          -0.7125020000000001           
         O28       1.0000    0.55020   0.89030   0.42020   Biso      1.000     O          -0.725538           
         S1        1.0000    0.76745   0.55975   0.74985   Biso      1.000     S          0.200102  
         S2        1.0000    0.73255   0.05975   0.24985   Biso      1.000     S          0.200102  
         S3        1.0000    0.23255   0.44025   0.25015   Biso      1.000     S          0.200102  
         S4        1.0000    0.26745   0.94025   0.75015   Biso      1.000     S          0.200101  
         Tb1       1.0000    0.46791   0.24935   0.48150   Biso      1.000     Tb          2.090452  
         Tb2       1.0000    0.96791   0.25065   0.01850   Biso      1.000     Tb          2.090452  
         Tb3       1.0000    0.53209   0.75065   0.51850   Biso      1.000     Tb          2.090452  
         Tb4       1.0000    0.03209   0.74935   0.98150   Biso      1.000     Tb          2.0904529999999997 