
##########################################################################
#               Crystallographic Information Format file
#               Produced by PyCifRW module
#
#  This is a CIF file.  CIF has been adopted by the International
#  Union of Crystallography as the standard for data archiving and
#  transmission.
#
#  For information on this file format, follow the CIF links at
#  http://www.iucr.org
##########################################################################

data_image0

_cell_length_a                          9.8294
_cell_length_b                          12.1098
_cell_length_c                          14.6279
_cell_angle_alpha                       109.75
_cell_angle_beta                        103.613
_cell_angle_gamma                       100.14
_symmetry_space_group_name_H-M          'P 1'
_symmetry_int_tables_number             1
loop_
  _symmetry_equiv_pos_as_xyz
         'x, y, z' 
loop_
  _atom_site_label
  _atom_site_occupancy
  _atom_site_fract_x
  _atom_site_fract_y
  _atom_site_fract_z
  _atom_site_thermal_displace_type
  _atom_site_B_iso_or_equiv
  _atom_site_type_symbol
  _atom_site_charge
         C1        1.0000    0.06390   0.95480   0.69790   Biso      1.000     C          -0.164675           
         C2        1.0000    0.67050   0.62630   0.76630   Biso      1.000     C          -0.001584           
         C3        1.0000    0.76910   0.65790   0.71960   Biso      1.000     C          -0.169486           
         C4        1.0000    0.86160   0.60970   0.57040   Biso      1.000     C          -0.13781300000000002          
         C5        1.0000    0.85010   0.53570   0.47470   Biso      1.000     C          -0.144429           
         C6        1.0000    0.72690   0.34040   0.32260   Biso      1.000     C          -0.162825           
         C7        1.0000    0.61380   0.23230   0.27030   Biso      1.000     C          -0.034286000000000004         
         C8        1.0000    0.51330   0.20050   0.31680   Biso      1.000     C          -0.171071           
         C9        1.0000    0.56120   0.51490   0.71600   Biso      1.000     C          -0.160342           
         C10       1.0000    0.79030   0.09380   0.52080   Biso      1.000     C          -0.137133           
         C11       1.0000    0.93600   0.99950   0.83060   Biso      1.000     C          0.692892  
         C12       1.0000    0.86520   0.04380   0.67360   Biso      1.000     C          -0.160077           
         C13       1.0000    0.88130   0.04560   0.58140   Biso      1.000     C          0.086868  
         C14       1.0000    0.99080   0.99960   0.54730   Biso      1.000     C          -0.009082           
         C15       1.0000    0.08180   0.95290   0.60580   Biso      1.000     C          0.090277  
         C16       1.0000    0.95620   0.99950   0.73200   Biso      1.000     C          -0.030554           
         C17       1.0000    0.32800   0.28650   0.13030   Biso      1.000     C          0.601406  
         C18       1.0000    0.18820   0.90280   0.56640   Biso      1.000     C          -0.133208           
         C19       1.0000    0.39930   0.85360   0.83540   Biso      1.000     C          0.704621  
         C20       1.0000    0.43930   0.31920   0.56430   Biso      1.000     C          -0.13703900000000002          
         C21       1.0000    0.52790   0.27560   0.41750   Biso      1.000     C          0.087463  
         C22       1.0000    0.20970   0.90620   0.47920   Biso      1.000     C          -0.13711500000000001          
         C23       1.0000    0.81180   0.09720   0.43360   Biso      1.000     C          -0.13319  
         C24       1.0000    0.06400   0.00050   0.16940   Biso      1.000     C          0.692893  
         C25       1.0000    0.13480   0.95620   0.32640   Biso      1.000     C          -0.160077           
         C26       1.0000    0.11870   0.95440   0.41860   Biso      1.000     C          0.086866  
         C27       1.0000    0.00920   0.00040   0.45270   Biso      1.000     C          -0.009082           
         C28       1.0000    0.91820   0.04710   0.39420   Biso      1.000     C          0.090276  
         C29       1.0000    0.42820   0.24410   0.46900   Biso      1.000     C          -0.14907  
         C30       1.0000    0.93610   0.04520   0.30210   Biso      1.000     C          -0.164675           
         C31       1.0000    0.67200   0.71350   0.86970   Biso      1.000     C          0.601406  
         C32       1.0000    0.60070   0.14640   0.16460   Biso      1.000     C          0.704621  
         C33       1.0000    0.55110   0.43350   0.61850   Biso      1.000     C          0.082402  
         C34       1.0000    0.65230   0.46530   0.57060   Biso      1.000     C          -0.014758000000000002         
         C35       1.0000    0.76270   0.57950   0.62240   Biso      1.000     C          0.080424  
         C36       1.0000    0.73980   0.41970   0.42060   Biso      1.000     C          0.086517  
         C37       1.0000    0.64060   0.38720   0.46970   Biso      1.000     C          -0.009354000000000001         
         C38       1.0000    0.04380   0.00050   0.26800   Biso      1.000     C          -0.030554           
         C39       1.0000    0.34770   0.53470   0.42940   Biso      1.000     C          -0.014758000000000002         
         C40       1.0000    0.44890   0.56650   0.38150   Biso      1.000     C          0.082403  
         C41       1.0000    0.26020   0.58030   0.57940   Biso      1.000     C          0.086519  
         C42       1.0000    0.23730   0.42050   0.37760   Biso      1.000     C          0.08042200000000001           
         C43       1.0000    0.48670   0.79950   0.68320   Biso      1.000     C          -0.171071           
         C44       1.0000    0.38620   0.76770   0.72970   Biso      1.000     C          -0.034286000000000004         
         C45       1.0000    0.14990   0.46430   0.52530   Biso      1.000     C          -0.144449           
         C46       1.0000    0.13840   0.39030   0.42960   Biso      1.000     C          -0.137793           
         C47       1.0000    0.23090   0.34210   0.28040   Biso      1.000     C          -0.16949  
         C48       1.0000    0.32950   0.37370   0.23370   Biso      1.000     C          -0.0015810000000000002        
         C49       1.0000    0.27310   0.65960   0.67740   Biso      1.000     C          -0.162825           
         C50       1.0000    0.56070   0.68080   0.43570   Biso      1.000     C          -0.13703900000000002          
         C51       1.0000    0.57180   0.75590   0.53100   Biso      1.000     C          -0.14907  
         C52       1.0000    0.47210   0.72440   0.58250   Biso      1.000     C          0.087463  
         C53       1.0000    0.35940   0.61280   0.53030   Biso      1.000     C          -0.009354000000000001         
         C54       1.0000    0.43880   0.48510   0.28400   Biso      1.000     C          -0.160342           
         H1        1.0000    0.79090   0.07330   0.69670   Biso      1.000     H          0.129898  
         H2        1.0000    0.12630   0.92510   0.73800   Biso      1.000     H          0.114677  
         H3        1.0000    0.56520   0.87200   0.71980   Biso      1.000     H          0.126685  
         H4        1.0000    0.64670   0.83100   0.56490   Biso      1.000     H          0.11026199999999999           
         H5        1.0000    0.62810   0.70390   0.40390   Biso      1.000     H          0.121808  
         H6        1.0000    0.15770   0.26600   0.24600   Biso      1.000     H          0.122305  
         H7        1.0000    0.06260   0.31580   0.39550   Biso      1.000     H          0.111568  
         H8        1.0000    0.08430   0.43970   0.55780   Biso      1.000     H          0.11777   
         H9        1.0000    0.24530   0.86600   0.60270   Biso      1.000     H          0.10813299999999999           
         H10       1.0000    0.20390   0.63980   0.70920   Biso      1.000     H          0.12961099999999998           
         H11       1.0000    0.50670   0.50580   0.25170   Biso      1.000     H          0.130325  
         H12       1.0000    0.71480   0.12320   0.54220   Biso      1.000     H          0.124931  
         H13       1.0000    0.49330   0.49420   0.74830   Biso      1.000     H          0.130325  
         H14       1.0000    0.79610   0.36020   0.29080   Biso      1.000     H          0.12961099999999998           
         H15       1.0000    0.28520   0.87680   0.45780   Biso      1.000     H          0.12493   
         H16       1.0000    0.43480   0.12800   0.28020   Biso      1.000     H          0.126685  
         H17       1.0000    0.20910   0.92670   0.30330   Biso      1.000     H          0.129898  
         H18       1.0000    0.87370   0.07490   0.26200   Biso      1.000     H          0.114677  
         H19       1.0000    0.75470   0.13400   0.39730   Biso      1.000     H          0.10813199999999999           
         H20       1.0000    0.37190   0.29610   0.59610   Biso      1.000     H          0.121808  
         H21       1.0000    0.84230   0.73400   0.75400   Biso      1.000     H          0.122305  
         H22       1.0000    0.93740   0.68420   0.60450   Biso      1.000     H          0.111569  
         H23       1.0000    0.91570   0.56030   0.44220   Biso      1.000     H          0.117769  
         H24       1.0000    0.35330   0.16900   0.43510   Biso      1.000     H          0.11026199999999999           
         O1        1.0000    0.76940   0.81790   0.90990   Biso      1.000     O          -0.751818           
         O2        1.0000    0.81800   0.01520   0.84550   Biso      1.000     O          -0.675821           
         O3        1.0000    0.58360   0.68160   0.91050   Biso      1.000     O          -0.568438           
         O4        1.0000    0.47980   0.06840   0.11080   Biso      1.000     O          -0.76299  
         O5        1.0000    0.71240   0.15400   0.13690   Biso      1.000     O          -0.718671           
         O6        1.0000    0.03560   0.98380   0.89250   Biso      1.000     O          -0.752428           
         O7        1.0000    0.18200   0.98480   0.15450   Biso      1.000     O          -0.675821           
         O8        1.0000    0.23060   0.18210   0.09010   Biso      1.000     O          -0.751818           
         O9        1.0000    0.52020   0.93160   0.88920   Biso      1.000     O          -0.76299  
         O10       1.0000    0.28760   0.84600   0.86310   Biso      1.000     O          -0.718671           
         O11       1.0000    0.96440   0.01620   0.10750   Biso      1.000     O          -0.752428           
         O12       1.0000    0.41640   0.31840   0.08950   Biso      1.000     O          -0.568438           
         Tb1       1.0000    0.76030   0.02126   0.99531   Biso      1.000     Tb          2.196094  
         Tb2       1.0000    0.23970   0.97874   0.00469   Biso      1.000     Tb          2.196094 