
##########################################################################
#               Crystallographic Information Format file
#               Produced by PyCifRW module
#
#  This is a CIF file.  CIF has been adopted by the International
#  Union of Crystallography as the standard for data archiving and
#  transmission.
#
#  For information on this file format, follow the CIF links at
#  http://www.iucr.org
##########################################################################

data_image0

_cell_length_a                          10.2792
_cell_length_b                          10.2792
_cell_length_c                          14.5376
_cell_angle_alpha                       90
_cell_angle_beta                        90
_cell_angle_gamma                       90
_symmetry_space_group_name_H-M          'P 1'
_symmetry_int_tables_number             1
loop_
  _symmetry_equiv_pos_as_xyz
         'x, y, z' 
loop_
  _atom_site_label
  _atom_site_occupancy
  _atom_site_fract_x
  _atom_site_fract_y
  _atom_site_fract_z
  _atom_site_thermal_displace_type
  _atom_site_B_iso_or_equiv
  _atom_site_type_symbol
  _atom_site_charge
         C1        1.0000    0.60510   0.04050   0.82690   Biso      1.000     C          -0.10765799999999999          
         C2        1.0000    0.04050   0.39490   0.57690   Biso      1.000     C          -0.10765799999999999          
         C3        1.0000    0.04100   0.26100   0.57670   Biso      1.000     C          -0.024963           
         C4        1.0000    0.95950   0.60510   0.07690   Biso      1.000     C          -0.10765799999999999          
         C5        1.0000    0.95900   0.73900   0.07670   Biso      1.000     C          -0.024963           
         C6        1.0000    0.91430   0.81450   0.15980   Biso      1.000     C          0.685503  
         C7        1.0000    0.39490   0.95950   0.32690   Biso      1.000     C          -0.10765799999999999          
         C8        1.0000    0.26100   0.95900   0.32670   Biso      1.000     C          -0.024963           
         C9        1.0000    0.18550   0.91430   0.40980   Biso      1.000     C          0.685503  
         C10       1.0000    0.73900   0.04100   0.82670   Biso      1.000     C          -0.024963           
         C11       1.0000    0.81450   0.08570   0.90980   Biso      1.000     C          0.685503  
         C12       1.0000    0.18550   0.08570   0.09020   Biso      1.000     C          0.685503  
         C13       1.0000    0.00000   0.46100   0.50000   Biso      1.000     C          -0.022813999999999997         
         C14       1.0000    0.00000   0.60900   0.50000   Biso      1.000     C          0.701076  
         C15       1.0000    0.00000   0.53900   0.00000   Biso      1.000     C          -0.022813999999999997         
         C16       1.0000    0.00000   0.80600   0.00000   Biso      1.000     C          -0.11093499999999999          
         C17       1.0000    0.00000   0.39100   0.00000   Biso      1.000     C          0.701076  
         C18       1.0000    0.53900   0.00000   0.75000   Biso      1.000     C          -0.022813999999999997         
         C19       1.0000    0.80600   0.00000   0.75000   Biso      1.000     C          -0.11093499999999999          
         C20       1.0000    0.39100   0.00000   0.75000   Biso      1.000     C          0.701076  
         C21       1.0000    0.46100   0.00000   0.25000   Biso      1.000     C          -0.022813999999999997         
         C22       1.0000    0.19400   0.00000   0.25000   Biso      1.000     C          -0.11093499999999999          
         C23       1.0000    0.60900   0.00000   0.25000   Biso      1.000     C          0.701076  
         C24       1.0000    0.00000   0.19400   0.50000   Biso      1.000     C          -0.11093499999999999          
         C25       1.0000    0.26100   0.04100   0.17330   Biso      1.000     C          -0.024961           
         C26       1.0000    0.08570   0.18550   0.65980   Biso      1.000     C          0.685503  
         C27       1.0000    0.81450   0.91430   0.59020   Biso      1.000     C          0.685503  
         C28       1.0000    0.73900   0.95900   0.67330   Biso      1.000     C          -0.024961           
         C29       1.0000    0.60510   0.95950   0.67310   Biso      1.000     C          -0.107655           
         C30       1.0000    0.08570   0.81450   0.84020   Biso      1.000     C          0.685503  
         C31       1.0000    0.04100   0.73900   0.92330   Biso      1.000     C          -0.024961           
         C32       1.0000    0.04050   0.60510   0.92310   Biso      1.000     C          -0.107655           
         C33       1.0000    0.91430   0.18550   0.34020   Biso      1.000     C          0.685503  
         C34       1.0000    0.95900   0.26100   0.42330   Biso      1.000     C          -0.024961           
         C35       1.0000    0.95950   0.39490   0.42310   Biso      1.000     C          -0.107655           
         C36       1.0000    0.39490   0.04050   0.17310   Biso      1.000     C          -0.107655           
         H1        1.0000    0.92670   0.43580   0.37170   Biso      1.000     H          0.132123  
         H2        1.0000    0.07330   0.56420   0.87170   Biso      1.000     H          0.132123  
         H3        1.0000    0.56420   0.92670   0.62170   Biso      1.000     H          0.132123  
         H4        1.0000    0.43580   0.07330   0.12170   Biso      1.000     H          0.132123  
         H5        1.0000    0.07330   0.43580   0.62830   Biso      1.000     H          0.132124  
         H6        1.0000    0.43580   0.92670   0.37830   Biso      1.000     H          0.132124  
         H7        1.0000    0.92670   0.56420   0.12830   Biso      1.000     H          0.132124  
         H8        1.0000    0.00000   0.10100   0.50000   Biso      1.000     H          0.11135999999999999           
         H9        1.0000    0.00000   0.89900   0.00000   Biso      1.000     H          0.11135999999999999           
         H10       1.0000    0.89900   0.00000   0.75000   Biso      1.000     H          0.11135999999999999           
         H11       1.0000    0.10100   0.00000   0.25000   Biso      1.000     H          0.11135999999999999           
         H12       1.0000    0.56420   0.07330   0.87830   Biso      1.000     H          0.132124  
         O1        1.0000    0.90810   0.24380   0.26470   Biso      1.000     O          -0.6982619999999999           
         O2        1.0000    0.07090   0.66470   0.55820   Biso      1.000     O          -0.702202           
         O3        1.0000    0.11060   0.06910   0.65210   Biso      1.000     O          -0.7076600000000001           
         O4        1.0000    0.24380   0.90810   0.48530   Biso      1.000     O          -0.6982619999999999           
         O5        1.0000    0.92910   0.33530   0.05820   Biso      1.000     O          -0.702202           
         O6        1.0000    0.33530   0.07090   0.80820   Biso      1.000     O          -0.702202           
         O7        1.0000    0.75620   0.09190   0.98530   Biso      1.000     O          -0.6982619999999999           
         O8        1.0000    0.90810   0.75620   0.23530   Biso      1.000     O          -0.6982619999999999           
         O9        1.0000    0.06910   0.88940   0.40210   Biso      1.000     O          -0.7076600000000001           
         O10       1.0000    0.06910   0.11060   0.09790   Biso      1.000     O          -0.7076600000000001           
         O11       1.0000    0.66470   0.92910   0.30820   Biso      1.000     O          -0.702202           
         O12       1.0000    0.88940   0.93090   0.15210   Biso      1.000     O          -0.7076600000000001           
         O13       1.0000    0.66470   0.07090   0.19180   Biso      1.000     O          -0.702202           
         O14       1.0000    0.09190   0.24380   0.73530   Biso      1.000     O          -0.6982619999999999           
         O15       1.0000    0.93090   0.88940   0.59790   Biso      1.000     O          -0.7076600000000001           
         O16       1.0000    0.33530   0.92910   0.69180   Biso      1.000     O          -0.702202           
         O17       1.0000    0.24380   0.09190   0.01470   Biso      1.000     O          -0.6982619999999999           
         O18       1.0000    0.11060   0.93090   0.84790   Biso      1.000     O          -0.7076600000000001           
         O19       1.0000    0.07090   0.33530   0.94180   Biso      1.000     O          -0.702202           
         O20       1.0000    0.75620   0.90810   0.51470   Biso      1.000     O          -0.6982619999999999           
         O21       1.0000    0.88940   0.06910   0.34790   Biso      1.000     O          -0.7076600000000001           
         O22       1.0000    0.92910   0.66470   0.44180   Biso      1.000     O          -0.702202           
         O23       1.0000    0.93090   0.11060   0.90210   Biso      1.000     O          -0.7076600000000001           
         O24       1.0000    0.09190   0.75620   0.76470   Biso      1.000     O          -0.6982619999999999           
         Tb1       1.0000    0.85129   0.14871   0.12500   Biso      1.000     Tb          2.167544  
         Tb2       1.0000    0.14871   0.85129   0.62500   Biso      1.000     Tb          2.167544  
         Tb3       1.0000    0.14871   0.14871   0.87500   Biso      1.000     Tb          2.167544  
         Tb4       1.0000    0.85129   0.85129   0.37500   Biso      1.000     Tb          2.167544 