
##########################################################################
#               Crystallographic Information Format file
#               Produced by PyCifRW module
#
#  This is a CIF file.  CIF has been adopted by the International
#  Union of Crystallography as the standard for data archiving and
#  transmission.
#
#  For information on this file format, follow the CIF links at
#  http://www.iucr.org
##########################################################################

data_image0

_cell_length_a                          7.4106
_cell_length_b                          16.622
_cell_length_c                          16.683
_cell_angle_alpha                       104.24
_cell_angle_beta                        101.49
_cell_angle_gamma                       98.67
_symmetry_space_group_name_H-M          'P 1'
_symmetry_int_tables_number             1
loop_
  _symmetry_equiv_pos_as_xyz
         'x, y, z' 
loop_
  _atom_site_label
  _atom_site_occupancy
  _atom_site_fract_x
  _atom_site_fract_y
  _atom_site_fract_z
  _atom_site_thermal_displace_type
  _atom_site_B_iso_or_equiv
  _atom_site_type_symbol
  _atom_site_charge
         C1        1.0000    0.70830   0.41330   0.73110   Biso      1.000     C          0.571501  
         C2        1.0000    0.47100   0.67580   0.63000   Biso      1.000     C          -0.00933  
         C3        1.0000    0.14380   0.60950   0.73130   Biso      1.000     C          0.01849   
         C4        1.0000    0.16870   0.69630   0.76550   Biso      1.000     C          -0.24400100000000002          
         C5        1.0000    0.07860   0.74360   0.71860   Biso      1.000     C          0.246464  
         C6        1.0000    0.96350   0.70400   0.63880   Biso      1.000     C          -0.268086           
         C7        1.0000    0.03090   0.88090   0.71230   Biso      1.000     C          -0.15848099999999998          
         C8        1.0000    0.14030   0.90230   0.64980   Biso      1.000     C          0.617397  
         C9        1.0000    0.19360   0.41580   0.98650   Biso      1.000     C          0.570723  
         C10       1.0000    0.03780   0.36810   0.91030   Biso      1.000     C          0.023737  
         C11       1.0000    0.98560   0.28050   0.88920   Biso      1.000     C          -0.25399299999999997          
         C12       1.0000    0.85610   0.23470   0.81340   Biso      1.000     C          0.255777  
         C13       1.0000    0.77270   0.27740   0.75860   Biso      1.000     C          -0.264288           
         C14       1.0000    0.81540   0.36560   0.78320   Biso      1.000     C          0.028312  
         C15       1.0000    0.94870   0.41140   0.85780   Biso      1.000     C          -0.164482           
         C16       1.0000    0.68220   0.09500   0.72600   Biso      1.000     C          -0.184285           
         C17       1.0000    0.52540   0.75610   0.68100   Biso      1.000     C          -0.12733599999999998          
         C18       1.0000    0.75270   0.07210   0.64610   Biso      1.000     C          0.631255  
         C19       1.0000    0.63870   0.67000   0.74830   Biso      1.000     C          0.115944  
         C20       1.0000    0.71980   0.90440   0.82740   Biso      1.000     C          -0.18845  
         C21       1.0000    0.78550   0.57270   0.52510   Biso      1.000     C          0.5703739999999999  
         C22       1.0000    0.25800   0.55970   0.77660   Biso      1.000     C          0.566607  
         C23       1.0000    0.36210   0.08500   0.86150   Biso      1.000     C          -0.188132           
         C24       1.0000    0.38390   0.02030   0.89770   Biso      1.000     C          -0.121065           
         C25       1.0000    0.48840   0.03510   0.98040   Biso      1.000     C          0.062699  
         C26       1.0000    0.56610   0.11840   0.02440   Biso      1.000     C          -0.112197           
         C27       1.0000    0.54390   0.18430   0.98900   Biso      1.000     C          -0.169303           
         C28       1.0000    0.43970   0.16690   0.90610   Biso      1.000     C          0.183422  
         C29       1.0000    0.49710   0.31700   0.90210   Biso      1.000     C          0.11095799999999999           
         C30       1.0000    0.30030   0.22640   0.78860   Biso      1.000     C          -0.120403           
         C31       1.0000    0.31750   0.30410   0.77890   Biso      1.000     C          -0.01114  
         C32       1.0000    0.84310   0.81080   0.90040   Biso      1.000     C          -0.163609           
         C33       1.0000    0.94600   0.87980   0.96630   Biso      1.000     C          -0.110976           
         C34       1.0000    0.94200   0.96320   0.96470   Biso      1.000     C          0.059410000000000004          
         C35       1.0000    0.82590   0.97280   0.89250   Biso      1.000     C          -0.13176400000000002          
         C36       1.0000    0.73160   0.82270   0.82940   Biso      1.000     C          0.179702  
         C37       1.0000    0.52900   0.32420   0.37000   Biso      1.000     C          -0.00933  
         C38       1.0000    0.47460   0.24390   0.31900   Biso      1.000     C          -0.12733599999999998          
         C39       1.0000    0.36130   0.33000   0.25170   Biso      1.000     C          0.115944  
         C40       1.0000    0.83130   0.30370   0.23450   Biso      1.000     C          -0.244002           
         C41       1.0000    0.92140   0.25640   0.28140   Biso      1.000     C          0.246464  
         C42       1.0000    0.03650   0.29600   0.36120   Biso      1.000     C          -0.268086           
         C43       1.0000    0.96910   0.11910   0.28770   Biso      1.000     C          -0.15848099999999998          
         C44       1.0000    0.85970   0.09770   0.35020   Biso      1.000     C          0.617397  
         C45       1.0000    0.29170   0.58670   0.26890   Biso      1.000     C          0.571501  
         C46       1.0000    0.80640   0.58420   0.01350   Biso      1.000     C          0.570723  
         C47       1.0000    0.96220   0.63190   0.08970   Biso      1.000     C          0.023737  
         C48       1.0000    0.01440   0.71950   0.11080   Biso      1.000     C          -0.25399299999999997          
         C49       1.0000    0.14390   0.76530   0.18660   Biso      1.000     C          0.255777  
         C50       1.0000    0.22730   0.72260   0.24140   Biso      1.000     C          -0.264288           
         C51       1.0000    0.18460   0.63440   0.21680   Biso      1.000     C          0.028312  
         C52       1.0000    0.05130   0.58860   0.14220   Biso      1.000     C          -0.164482           
         C53       1.0000    0.31780   0.90500   0.27400   Biso      1.000     C          -0.184285           
         C54       1.0000    0.24730   0.92790   0.35390   Biso      1.000     C          0.631255  
         C55       1.0000    0.85620   0.39050   0.26870   Biso      1.000     C          0.01849   
         C56       1.0000    0.97920   0.43100   0.34750   Biso      1.000     C          -0.15943800000000002          
         C57       1.0000    0.07130   0.38330   0.39330   Biso      1.000     C          0.029511000000000003          
         C58       1.0000    0.21450   0.42730   0.47490   Biso      1.000     C          0.5703739999999999  
         C59       1.0000    0.26840   0.17730   0.17060   Biso      1.000     C          0.179699  
         C60       1.0000    0.28020   0.09560   0.17260   Biso      1.000     C          -0.188449           
         C61       1.0000    0.17410   0.02720   0.10750   Biso      1.000     C          -0.13176600000000002          
         C62       1.0000    0.05800   0.03680   0.03530   Biso      1.000     C          0.059412  
         C63       1.0000    0.05400   0.12020   0.03370   Biso      1.000     C          -0.110983           
         C64       1.0000    0.15690   0.18920   0.09960   Biso      1.000     C          -0.163599           
         C65       1.0000    0.68250   0.69590   0.22110   Biso      1.000     C          -0.011173           
         C66       1.0000    0.92870   0.61670   0.60670   Biso      1.000     C          0.029511000000000003          
         C67       1.0000    0.69970   0.77360   0.21140   Biso      1.000     C          -0.120371           
         C68       1.0000    0.56030   0.83310   0.09390   Biso      1.000     C          0.18340399999999998           
         C69       1.0000    0.45610   0.81570   0.01100   Biso      1.000     C          -0.169299           
         C70       1.0000    0.43390   0.88160   0.97560   Biso      1.000     C          -0.112201           
         C71       1.0000    0.51160   0.96490   0.01960   Biso      1.000     C          0.062703  
         C72       1.0000    0.61610   0.97970   0.10230   Biso      1.000     C          -0.121073           
         C73       1.0000    0.63790   0.91500   0.13850   Biso      1.000     C          -0.188109           
         C74       1.0000    0.74200   0.44030   0.22340   Biso      1.000     C          0.566607  
         C75       1.0000    0.50290   0.68300   0.09790   Biso      1.000     C          0.110957  
         C76       1.0000    0.02080   0.56900   0.65250   Biso      1.000     C          -0.15943800000000002          
         Cd1       1.0000    0.48669   0.48300   0.62798   Biso      1.000     Cd          0.965449  
         Cd2       1.0000    0.31649   0.95599   0.54158   Biso      1.000     Cd          1.016275  
         Cd3       1.0000    0.50972   0.50125   0.88126   Biso      1.000     Cd          0.9450930000000001  
         Cd4       1.0000    0.51331   0.51700   0.37202   Biso      1.000     Cd          0.965449  
         Cd5       1.0000    0.68351   0.04401   0.45842   Biso      1.000     Cd          1.016274  
         Cd6       1.0000    0.49028   0.49875   0.11874   Biso      1.000     Cd          0.9450930000000001  
         H1        1.0000    0.36670   0.95690   0.26170   Biso      1.000     H          0.13719   
         H2        1.0000    0.02320   0.93310   0.75190   Biso      1.000     H          0.134873  
         H3        1.0000    0.90360   0.85120   0.68120   Biso      1.000     H          0.11245899999999999           
         H4        1.0000    0.90860   0.73600   0.60620   Biso      1.000     H          0.13131600000000002           
         H5        1.0000    0.24570   0.72290   0.81980   Biso      1.000     H          0.13622599999999999           
         H6        1.0000    0.99980   0.51040   0.63040   Biso      1.000     H          0.134939  
         H7        1.0000    0.29280   0.07240   0.80530   Biso      1.000     H          0.113793  
         H8        1.0000    0.32670   0.96480   0.86560   Biso      1.000     H          0.10861300000000002           
         H9        1.0000    0.63660   0.13100   0.08040   Biso      1.000     H          0.10897899999999999           
         H10       1.0000    0.59890   0.24010   0.02080   Biso      1.000     H          0.131882  
         H11       1.0000    0.25560   0.31760   0.73130   Biso      1.000     H          0.139415  
         H12       1.0000    0.22640   0.17660   0.74970   Biso      1.000     H          0.129457  
         H13       1.0000    0.03800   0.25200   0.92640   Biso      1.000     H          0.13781600000000002           
         H14       1.0000    0.84870   0.75610   0.90370   Biso      1.000     H          0.132127  
         H15       1.0000    0.02100   0.87070   0.01370   Biso      1.000     H          0.112522  
         H16       1.0000    0.82030   0.02720   0.88850   Biso      1.000     H          0.11150999999999998           
         H17       1.0000    0.42130   0.87650   0.28470   Biso      1.000     H          0.11654300000000001           
         H18       1.0000    0.70260   0.64970   0.79050   Biso      1.000     H          0.118396  
         H19       1.0000    0.49650   0.80450   0.66750   Biso      1.000     H          0.125055  
         H20       1.0000    0.39620   0.65930   0.57450   Biso      1.000     H          0.13633599999999998           
         H21       1.0000    0.58240   0.33960   0.95510   Biso      1.000     H          0.121001  
         H22       1.0000    0.68980   0.24730   0.70640   Biso      1.000     H          0.12687   
         H23       1.0000    0.63910   0.91310   0.78130   Biso      1.000     H          0.117782  
         H24       1.0000    0.63330   0.04310   0.73830   Biso      1.000     H          0.13719   
         H25       1.0000    0.02160   0.52960   0.12740   Biso      1.000     H          0.13682   
         H26       1.0000    0.31020   0.75270   0.29360   Biso      1.000     H          0.12687   
         H27       1.0000    0.96200   0.74800   0.07360   Biso      1.000     H          0.13781600000000002           
         H28       1.0000    0.97680   0.06690   0.24810   Biso      1.000     H          0.134873  
         H29       1.0000    0.09640   0.14880   0.31880   Biso      1.000     H          0.11245899999999999           
         H30       1.0000    0.09140   0.26400   0.39380   Biso      1.000     H          0.13131600000000002           
         H31       1.0000    0.75430   0.27710   0.18020   Biso      1.000     H          0.13622599999999999           
         H32       1.0000    0.00020   0.48960   0.36960   Biso      1.000     H          0.134939  
         H33       1.0000    0.70720   0.92760   0.19470   Biso      1.000     H          0.113792  
         H34       1.0000    0.67330   0.03520   0.13440   Biso      1.000     H          0.10861300000000002           
         H35       1.0000    0.97840   0.47040   0.87260   Biso      1.000     H          0.13682   
         H36       1.0000    0.36340   0.86900   0.91960   Biso      1.000     H          0.10898   
         H37       1.0000    0.41760   0.66040   0.04490   Biso      1.000     H          0.121001  
         H38       1.0000    0.77360   0.82340   0.25030   Biso      1.000     H          0.129455  
         H39       1.0000    0.74440   0.68240   0.26870   Biso      1.000     H          0.139417  
         H40       1.0000    0.15130   0.24390   0.09630   Biso      1.000     H          0.132127  
         H41       1.0000    0.97900   0.12930   0.98630   Biso      1.000     H          0.112522  
         H42       1.0000    0.17970   0.97280   0.11150   Biso      1.000     H          0.11151099999999999           
         H43       1.0000    0.36090   0.08690   0.21870   Biso      1.000     H          0.117782  
         H44       1.0000    0.29740   0.35030   0.20950   Biso      1.000     H          0.118396  
         H45       1.0000    0.50350   0.19550   0.33250   Biso      1.000     H          0.125055  
         H46       1.0000    0.60380   0.34070   0.42550   Biso      1.000     H          0.13633599999999998           
         H47       1.0000    0.57870   0.12350   0.71530   Biso      1.000     H          0.11654300000000001           
         H48       1.0000    0.40110   0.75990   0.97920   Biso      1.000     H          0.131882  
         N1        1.0000    0.58550   0.76560   0.13180   Biso      1.000     N          0.008512  
         N2        1.0000    0.55940   0.63820   0.14990   Biso      1.000     N          -0.290072           
         N3        1.0000    0.45730   0.37800   0.32770   Biso      1.000     N          -0.281405           
         N4        1.0000    0.36680   0.24770   0.24230   Biso      1.000     N          0.014513  
         N5        1.0000    0.44060   0.36180   0.85010   Biso      1.000     N          -0.290076           
         N6        1.0000    0.63320   0.75230   0.75770   Biso      1.000     N          0.014513  
         N7        1.0000    0.54270   0.62200   0.67230   Biso      1.000     N          -0.281405           
         N8        1.0000    0.41450   0.23440   0.86820   Biso      1.000     N          0.008513  
         O1        1.0000    0.30350   0.50030   0.48530   Biso      1.000     O          -0.573045           
         O2        1.0000    0.24700   0.38740   0.53070   Biso      1.000     O          -0.552022           
         O3        1.0000    0.72100   0.51120   0.26440   Biso      1.000     O          -0.577268           
         O4        1.0000    0.66260   0.40580   0.14530   Biso      1.000     O          -0.5463640000000001           
         O5        1.0000    0.88420   0.17070   0.24080   Biso      1.000     O          -0.184944           
         O6        1.0000    0.95440   0.10210   0.42400   Biso      1.000     O          -0.550387           
         O7        1.0000    0.31490   0.51490   0.23290   Biso      1.000     O          -0.5799479999999999           
         O8        1.0000    0.35700   0.62060   0.34800   Biso      1.000     O          -0.5402939999999999           
         O9        1.0000    0.76420   0.61610   0.95370   Biso      1.000     O          -0.547505           
         O10       1.0000    0.71450   0.51310   0.01310   Biso      1.000     O          -0.586117           
         O11       1.0000    0.17780   0.85160   0.20050   Biso      1.000     O          -0.184445           
         O12       1.0000    0.68700   0.07390   0.32690   Biso      1.000     O          -0.541925           
         O13       1.0000    0.62890   0.02280   0.58050   Biso      1.000     O          -0.619945           
         O14       1.0000    0.82220   0.14840   0.79950   Biso      1.000     O          -0.184445           
         O15       1.0000    0.28550   0.48690   0.98690   Biso      1.000     O          -0.586117           
         O16       1.0000    0.23580   0.38390   0.04630   Biso      1.000     O          -0.547506           
         O17       1.0000    0.64300   0.37940   0.65200   Biso      1.000     O          -0.5402939999999999           
         O18       1.0000    0.68510   0.48510   0.76710   Biso      1.000     O          -0.5799479999999999           
         O19       1.0000    0.04560   0.89790   0.57600   Biso      1.000     O          -0.550387           
         O20       1.0000    0.31300   0.92610   0.67310   Biso      1.000     O          -0.541925           
         O21       1.0000    0.11580   0.82930   0.75920   Biso      1.000     O          -0.184944           
         O22       1.0000    0.33740   0.59420   0.85470   Biso      1.000     O          -0.5463640000000001           
         O23       1.0000    0.27900   0.48880   0.73560   Biso      1.000     O          -0.577268           
         O24       1.0000    0.75300   0.61260   0.46930   Biso      1.000     O          -0.552022           
         O25       1.0000    0.69650   0.49970   0.51470   Biso      1.000     O          -0.573045           
         O26       1.0000    0.08610   0.89970   0.35490   Biso      1.000     O          -0.4976   
         O27       1.0000    0.91390   0.10030   0.64510   Biso      1.000     O          -0.4976   
         O28       1.0000    0.37110   0.97720   0.41950   Biso      1.000     O          -0.619945 