
##########################################################################
#               Crystallographic Information Format file
#               Produced by PyCifRW module
#
#  This is a CIF file.  CIF has been adopted by the International
#  Union of Crystallography as the standard for data archiving and
#  transmission.
#
#  For information on this file format, follow the CIF links at
#  http://www.iucr.org
##########################################################################

data_image0

_cell_length_a                          12.042
_cell_length_b                          13.967
_cell_length_c                          22.754
_cell_angle_alpha                       95.802
_cell_angle_beta                        105.211
_cell_angle_gamma                       104.118
_symmetry_space_group_name_H-M          'P 1'
_symmetry_int_tables_number             1
loop_
  _symmetry_equiv_pos_as_xyz
         'x, y, z' 
loop_
  _atom_site_label
  _atom_site_occupancy
  _atom_site_fract_x
  _atom_site_fract_y
  _atom_site_fract_z
  _atom_site_thermal_displace_type
  _atom_site_B_iso_or_equiv
  _atom_site_type_symbol
  _atom_site_charge
         Ag1       1.0000    0.68585   0.92480   0.05973   Biso      1.000     Ag          0.26505   
         Ag2       1.0000    0.01496   0.44071   0.58199   Biso      1.000     Ag          0.22817600000000002           
         Ag3       1.0000    0.35572   0.48613   0.64583   Biso      1.000     Ag          0.303031  
         Ag4       1.0000    0.89782   0.61789   0.67468   Biso      1.000     Ag          0.32127   
         Ag5       1.0000    0.81322   0.32947   0.43381   Biso      1.000     Ag          0.0889    
         Ag6       1.0000    0.47315   0.65190   0.80313   Biso      1.000     Ag          0.313659  
         Ag7       1.0000    0.31415   0.07520   0.94027   Biso      1.000     Ag          0.265058  
         Ag8       1.0000    0.34783   0.83760   0.50113   Biso      1.000     Ag          0.156584  
         Ag9       1.0000    0.64428   0.51387   0.35417   Biso      1.000     Ag          0.30304200000000003           
         Ag10      1.0000    0.65217   0.16240   0.49887   Biso      1.000     Ag          0.156553  
         Ag11      1.0000    0.10218   0.38211   0.32532   Biso      1.000     Ag          0.321275  
         Ag12      1.0000    0.18678   0.67053   0.56619   Biso      1.000     Ag          0.08886000000000001           
         Ag13      1.0000    0.52685   0.34810   0.19687   Biso      1.000     Ag          0.313657  
         Ag14      1.0000    0.98504   0.55929   0.41801   Biso      1.000     Ag          0.22815700000000003           
         C1        1.0000    0.21880   0.21870   0.14500   Biso      1.000     C          -0.181135           
         C2        1.0000    0.10440   0.02240   0.44860   Biso      1.000     C          -0.176868           
         C3        1.0000    0.13290   0.09250   0.49860   Biso      1.000     C          0.081093  
         C4        1.0000    0.26730   0.00820   0.54950   Biso      1.000     C          0.045853  
         C5        1.0000    0.21770   0.08610   0.55200   Biso      1.000     C          -0.16507  
         C6        1.0000    0.42310   0.22540   0.44740   Biso      1.000     C          0.028972  
         C7        1.0000    0.00030   0.25360   0.11250   Biso      1.000     C          0.09026   
         C8        1.0000    0.30480   0.37800   0.90010   Biso      1.000     C          0.077303  
         C9        1.0000    0.79790   0.23960   0.20930   Biso      1.000     C          0.026626999999999998          
         C10       1.0000    0.34200   0.27820   0.44400   Biso      1.000     C          -0.16913599999999998          
         C11       1.0000    0.81300   0.32630   0.25620   Biso      1.000     C          0.211218  
         C12       1.0000    0.13620   0.17320   0.09080   Biso      1.000     C          0.091889  
         C13       1.0000    0.39930   0.54850   0.94560   Biso      1.000     C          0.07639   
         C14       1.0000    0.92370   0.82400   0.49900   Biso      1.000     C          0.21182399999999998           
         C15       1.0000    0.85150   0.16470   0.22580   Biso      1.000     C          -0.197905           
         C16       1.0000    0.32630   0.53730   0.98580   Biso      1.000     C          -0.183294           
         C17       1.0000    0.15880   0.94580   0.44860   Biso      1.000     C          0.060952  
         C18       1.0000    0.28130   0.42190   0.48820   Biso      1.000     C          0.246002  
         C19       1.0000    0.48430   0.64830   0.95170   Biso      1.000     C          0.22408499999999998           
         C20       1.0000    0.19160   0.28680   0.18460   Biso      1.000     C          0.064127  
         C21       1.0000    0.36560   0.36100   0.48740   Biso      1.000     C          0.045894  
         C22       1.0000    0.72080   0.22550   0.15050   Biso      1.000     C          -0.203767           
         C23       1.0000    0.91990   0.69610   0.83240   Biso      1.000     C          -0.191879           
         C24       1.0000    0.63440   0.63900   0.51260   Biso      1.000     C          0.045938  
         C25       1.0000    0.17850   0.91990   0.81830   Biso      1.000     C          0.032758999999999996          
         C26       1.0000    0.57690   0.77460   0.55260   Biso      1.000     C          0.028979  
         C27       1.0000    0.99970   0.74640   0.88750   Biso      1.000     C          0.090277  
         C28       1.0000    0.61380   0.53250   0.09830   Biso      1.000     C          -0.19503800000000002          
         C29       1.0000    0.69520   0.62200   0.09990   Biso      1.000     C          0.077307  
         C30       1.0000    0.20210   0.76040   0.79070   Biso      1.000     C          0.026592  
         C31       1.0000    0.78120   0.78130   0.85500   Biso      1.000     C          -0.181134           
         C32       1.0000    0.65800   0.72180   0.55600   Biso      1.000     C          -0.169149           
         C33       1.0000    0.27920   0.77450   0.84950   Biso      1.000     C          -0.203759           
         C34       1.0000    0.86380   0.82680   0.90920   Biso      1.000     C          0.091889  
         C35       1.0000    0.60070   0.45150   0.05440   Biso      1.000     C          0.076392  
         C36       1.0000    0.71630   0.65750   0.75730   Biso      1.000     C          0.257615  
         C37       1.0000    0.07630   0.17600   0.50100   Biso      1.000     C          0.21184   
         C38       1.0000    0.67370   0.46270   0.01420   Biso      1.000     C          -0.183294           
         C39       1.0000    0.18700   0.67370   0.74380   Biso      1.000     C          0.21124   
         C40       1.0000    0.71870   0.57810   0.51180   Biso      1.000     C          0.245968  
         C41       1.0000    0.51570   0.35170   0.04830   Biso      1.000     C          0.22408499999999998           
         C42       1.0000    0.80840   0.71320   0.81540   Biso      1.000     C          0.064127  
         C43       1.0000    0.24980   0.44860   0.97980   Biso      1.000     C          0.083661  
         C44       1.0000    0.75020   0.55140   0.02020   Biso      1.000     C          0.08366   
         C45       1.0000    0.44220   0.65970   0.46940   Biso      1.000     C          0.050805  
         C46       1.0000    0.30450   0.86240   0.88970   Biso      1.000     C          0.052503999999999995          
         C47       1.0000    0.52130   0.60650   0.46950   Biso      1.000     C          -0.187546           
         C48       1.0000    0.14850   0.83530   0.77420   Biso      1.000     C          -0.19777999999999998          
         C49       1.0000    0.55780   0.34030   0.53060   Biso      1.000     C          0.050808  
         C50       1.0000    0.38620   0.46750   0.90170   Biso      1.000     C          -0.19503  
         C51       1.0000    0.47870   0.39350   0.53050   Biso      1.000     C          -0.187539           
         C52       1.0000    0.69550   0.13760   0.11030   Biso      1.000     C          0.05248200000000001           
         C53       1.0000    0.73270   0.99180   0.45050   Biso      1.000     C          0.045846  
         C54       1.0000    0.86710   0.90750   0.50140   Biso      1.000     C          0.081057  
         C55       1.0000    0.89560   0.97760   0.55140   Biso      1.000     C          -0.176853           
         C56       1.0000    0.78230   0.91390   0.44800   Biso      1.000     C          -0.165076           
         C57       1.0000    0.08010   0.30390   0.16760   Biso      1.000     C          -0.191865           
         C58       1.0000    0.28370   0.34250   0.24270   Biso      1.000     C          0.25761100000000003           
         C59       1.0000    0.82150   0.08010   0.18170   Biso      1.000     C          0.032851  
         C60       1.0000    0.84120   0.05420   0.55140   Biso      1.000     C          0.060936000000000004          
         H1        1.0000    0.90510   0.17150   0.26480   Biso      1.000     H          0.125237  
         H2        1.0000    0.43120   0.47310   0.87400   Biso      1.000     H          0.120407  
         H3        1.0000    0.29700   0.32220   0.87170   Biso      1.000     H          0.091833  
         H4        1.0000    0.29270   0.20510   0.15610   Biso      1.000     H          0.114408  
         H5        1.0000    0.27030   0.25810   0.41200   Biso      1.000     H          0.121024  
         H6        1.0000    0.68590   0.27560   0.13810   Biso      1.000     H          0.110295  
         H7        1.0000    0.15520   0.13000   0.06360   Biso      1.000     H          0.093441  
         H8        1.0000    0.33210   0.59090   0.01540   Biso      1.000     H          0.131496  
         H9        1.0000    0.85760   0.02990   0.19200   Biso      1.000     H          0.088586  
         H10       1.0000    0.63300   0.36320   0.55980   Biso      1.000     H          0.091129  
         H11       1.0000    0.64210   0.12900   0.07100   Biso      1.000     H          0.08775   
         H12       1.0000    0.49960   0.45210   0.55930   Biso      1.000     H          0.110197  
         H13       1.0000    0.92510   0.26470   0.10080   Biso      1.000     H          0.088551  
         H14       1.0000    0.06010   0.34890   0.19320   Biso      1.000     H          0.11046700000000001           
         H15       1.0000    0.86090   0.10070   0.58740   Biso      1.000     H          0.098092  
         H16       1.0000    0.95330   0.97500   0.58710   Biso      1.000     H          0.129394  
         H17       1.0000    0.67570   0.99660   0.41510   Biso      1.000     H          0.09009600000000001           
         H18       1.0000    0.20270   0.44150   0.00650   Biso      1.000     H          0.090135  
         H19       1.0000    0.40290   0.16610   0.41930   Biso      1.000     H          0.09047899999999999           
         H20       1.0000    0.76030   0.86680   0.41200   Biso      1.000     H          0.135392  
         H21       1.0000    0.32430   0.00340   0.58490   Biso      1.000     H          0.09009400000000001           
         H22       1.0000    0.23970   0.13320   0.58800   Biso      1.000     H          0.13539400000000001           
         H23       1.0000    0.59710   0.83390   0.58070   Biso      1.000     H          0.090476  
         H24       1.0000    0.07490   0.73530   0.89920   Biso      1.000     H          0.088554  
         H25       1.0000    0.56880   0.52690   0.12600   Biso      1.000     H          0.12040799999999999           
         H26       1.0000    0.70300   0.67780   0.12830   Biso      1.000     H          0.091833  
         H27       1.0000    0.70730   0.79490   0.84390   Biso      1.000     H          0.114408  
         H28       1.0000    0.31410   0.72440   0.86190   Biso      1.000     H          0.11029000000000001           
         H29       1.0000    0.84480   0.87000   0.93640   Biso      1.000     H          0.09344   
         H30       1.0000    0.09490   0.82850   0.73520   Biso      1.000     H          0.125221  
         H31       1.0000    0.72970   0.74190   0.58800   Biso      1.000     H          0.121027  
         H32       1.0000    0.79730   0.55850   0.99350   Biso      1.000     H          0.090135  
         H33       1.0000    0.36700   0.63680   0.44020   Biso      1.000     H          0.091127  
         H34       1.0000    0.35790   0.87100   0.92900   Biso      1.000     H          0.087742  
         H35       1.0000    0.50040   0.54790   0.44070   Biso      1.000     H          0.110198  
         H36       1.0000    0.14240   0.97010   0.80800   Biso      1.000     H          0.088591  
         H37       1.0000    0.93990   0.65110   0.80680   Biso      1.000     H          0.11047   
         H38       1.0000    0.13910   0.89930   0.41260   Biso      1.000     H          0.098093  
         H39       1.0000    0.66790   0.40910   0.98460   Biso      1.000     H          0.131494  
         H40       1.0000    0.04670   0.02500   0.41290   Biso      1.000     H          0.129396  
         N1        1.0000    0.55040   0.58180   0.68890   Biso      1.000     N          -0.03796  
         N2        1.0000    0.40120   0.22260   0.06650   Biso      1.000     N          -0.09307  
         N3        1.0000    0.80340   0.47610   0.47870   Biso      1.000     N          -0.015544999999999998         
         N4        1.0000    0.81130   0.57690   0.55940   Biso      1.000     N          -0.25648000000000004          
         N5        1.0000    0.59850   0.63660   0.74690   Biso      1.000     N          -0.234015           
         N6        1.0000    0.27800   0.63090   0.74330   Biso      1.000     N          -0.23009200000000002          
         N7        1.0000    0.74140   0.62100   0.70760   Biso      1.000     N          -0.227102           
         N8        1.0000    0.63520   0.57200   0.66490   Biso      1.000     N          -0.057932000000000004         
         N9        1.0000    0.23500   0.55950   0.69330   Biso      1.000     N          -0.06522  
         N10       1.0000    0.12200   0.55900   0.66510   Biso      1.000     N          -0.024584           
         N11       1.0000    0.86220   0.50960   0.53680   Biso      1.000     N          -0.048206           
         N12       1.0000    0.02850   0.30360   0.53100   Biso      1.000     N          -0.026602999999999998         
         N13       1.0000    0.98830   0.18590   0.45110   Biso      1.000     N          -0.287688           
         N14       1.0000    0.97350   0.81170   0.92550   Biso      1.000     N          -0.288935           
         N15       1.0000    0.23810   0.93790   0.49880   Biso      1.000     N          -0.167123           
         N16       1.0000    0.76450   0.63070   0.06120   Biso      1.000     N          -0.291049           
         N17       1.0000    0.47430   0.31300   0.09290   Biso      1.000     N          -0.22275599999999998          
         N18       1.0000    0.46730   0.74460   0.50990   Biso      1.000     N          -0.20008599999999999          
         N19       1.0000    0.09090   0.62670   0.69580   Biso      1.000     N          -0.201954           
         N20       1.0000    0.25600   0.93510   0.87500   Biso      1.000     N          -0.20554  
         N21       1.0000    0.10270   0.24670   0.54880   Biso      1.000     N          -0.30699699999999996          
         N22       1.0000    0.47310   0.28720   0.99520   Biso      1.000     N          -0.270598           
         N23       1.0000    0.71430   0.51930   0.46050   Biso      1.000     N          -0.23721399999999998          
         N24       1.0000    0.03650   0.73380   0.52580   Biso      1.000     N          0.003667  
         N25       1.0000    0.02650   0.18830   0.07450   Biso      1.000     N          -0.288936           
         N26       1.0000    0.52690   0.71280   0.00480   Biso      1.000     N          -0.270598           
         N27       1.0000    0.40160   0.20900   0.00830   Biso      1.000     N          -0.010338           
         N28       1.0000    0.74400   0.06490   0.12500   Biso      1.000     N          -0.205504           
         N29       1.0000    0.44960   0.41820   0.31110   Biso      1.000     N          -0.037964           
         N30       1.0000    0.40150   0.36340   0.25310   Biso      1.000     N          -0.234013           
         N31       1.0000    0.25860   0.37900   0.29240   Biso      1.000     N          -0.227102           
         N32       1.0000    0.72200   0.36910   0.25670   Biso      1.000     N          -0.23007199999999997          
         N33       1.0000    0.76500   0.44050   0.30670   Biso      1.000     N          -0.065232           
         N34       1.0000    0.18870   0.42310   0.44060   Biso      1.000     N          -0.256486           
         N35       1.0000    0.19660   0.52390   0.52130   Biso      1.000     N          -0.015533000000000002         
         N36       1.0000    0.59880   0.77740   0.93350   Biso      1.000     N          -0.093067           
         N37       1.0000    0.59840   0.79100   0.99170   Biso      1.000     N          -0.010333           
         N38       1.0000    0.36480   0.42800   0.33510   Biso      1.000     N          -0.057932000000000004         
         N39       1.0000    0.28570   0.48070   0.53950   Biso      1.000     N          -0.23721599999999998          
         N40       1.0000    0.97150   0.69640   0.46900   Biso      1.000     N          -0.026557           
         N41       1.0000    0.01170   0.81410   0.54890   Biso      1.000     N          -0.287662           
         N42       1.0000    0.76190   0.06210   0.50120   Biso      1.000     N          -0.167159           
         N43       1.0000    0.23550   0.36930   0.93880   Biso      1.000     N          -0.29104800000000003          
         N44       1.0000    0.52570   0.68700   0.90710   Biso      1.000     N          -0.22275599999999998          
         N45       1.0000    0.53270   0.25540   0.49010   Biso      1.000     N          -0.200097           
         N46       1.0000    0.90910   0.37330   0.30420   Biso      1.000     N          -0.201985           
         N47       1.0000    0.13780   0.49040   0.46320   Biso      1.000     N          -0.048208           
         N48       1.0000    0.89730   0.75330   0.45120   Biso      1.000     N          -0.307006           
         N49       1.0000    0.87800   0.44100   0.33490   Biso      1.000     N          -0.024541           
         N50       1.0000    0.96350   0.26620   0.47420   Biso      1.000     N          0.003744 