
##########################################################################
#               Crystallographic Information Format file
#               Produced by PyCifRW module
#
#  This is a CIF file.  CIF has been adopted by the International
#  Union of Crystallography as the standard for data archiving and
#  transmission.
#
#  For information on this file format, follow the CIF links at
#  http://www.iucr.org
##########################################################################

data_image0

_cell_length_a                          12.0117
_cell_length_b                          13.936
_cell_length_c                          22.602
_cell_angle_alpha                       77.088
_cell_angle_beta                        74.657
_cell_angle_gamma                       75.524
_symmetry_space_group_name_H-M          'P 1'
_symmetry_int_tables_number             1
loop_
  _symmetry_equiv_pos_as_xyz
         'x, y, z' 
loop_
  _atom_site_label
  _atom_site_occupancy
  _atom_site_fract_x
  _atom_site_fract_y
  _atom_site_fract_z
  _atom_site_thermal_displace_type
  _atom_site_B_iso_or_equiv
  _atom_site_type_symbol
  _atom_site_charge
         Ag1       1.0000    0.84312   0.16768   0.50339   Biso      1.000     Ag          0.150391  
         Ag2       1.0000    0.56522   0.43681   0.41625   Biso      1.000     Ag          0.223464  
         Ag3       1.0000    0.63065   0.07594   0.06057   Biso      1.000     Ag          0.269674  
         Ag4       1.0000    0.29237   0.48321   0.35355   Biso      1.000     Ag          0.265465  
         Ag5       1.0000    0.77503   0.61959   0.32621   Biso      1.000     Ag          0.314522  
         Ag6       1.0000    0.67206   0.34899   0.80339   Biso      1.000     Ag          0.312071  
         Ag7       1.0000    0.15688   0.83232   0.49661   Biso      1.000     Ag          0.150332  
         Ag8       1.0000    0.61537   0.33214   0.56481   Biso      1.000     Ag          0.154054  
         Ag9       1.0000    0.36935   0.92406   0.93943   Biso      1.000     Ag          0.269681  
         Ag10      1.0000    0.38463   0.66786   0.43519   Biso      1.000     Ag          0.153807  
         Ag11      1.0000    0.70763   0.51679   0.64645   Biso      1.000     Ag          0.265279  
         Ag12      1.0000    0.22497   0.38041   0.67379   Biso      1.000     Ag          0.314499  
         Ag13      1.0000    0.32794   0.65101   0.19661   Biso      1.000     Ag          0.312078  
         Ag14      1.0000    0.43478   0.56319   0.58375   Biso      1.000     Ag          0.223512  
         C1        1.0000    0.51850   0.46690   0.09760   Biso      1.000     C          -0.188059           
         C2        1.0000    0.53290   0.35310   0.95220   Biso      1.000     C          0.227681  
         C3        1.0000    0.96180   0.34160   0.75590   Biso      1.000     C          0.247479  
         C4        1.0000    0.97260   0.77620   0.44750   Biso      1.000     C          0.029749  
         C5        1.0000    0.26500   0.55240   0.98280   Biso      1.000     C          0.077222  
         C6        1.0000    0.43150   0.22410   0.85070   Biso      1.000     C          -0.193956           
         C7        1.0000    0.88290   0.74460   0.11260   Biso      1.000     C          0.090429  
         C8        1.0000    0.91110   0.69410   0.16750   Biso      1.000     C          -0.180148           
         C9        1.0000    0.11050   0.27330   0.55550   Biso      1.000     C          -0.171603           
         C10       1.0000    0.65700   0.98120   0.44680   Biso      1.000     C          -0.17811  
         C11       1.0000    0.65770   0.53900   0.01200   Biso      1.000     C          -0.172929           
         C12       1.0000    0.57700   0.82770   0.50040   Biso      1.000     C          0.213238  
         C13       1.0000    0.00510   0.71240   0.18580   Biso      1.000     C          0.055966  
         C14       1.0000    0.36840   0.16600   0.77530   Biso      1.000     C          -0.195767           
         C15       1.0000    0.44480   0.32590   0.74530   Biso      1.000     C          0.23235   
         C16       1.0000    0.63470   0.90960   0.49990   Biso      1.000     C          0.07033   
         C17       1.0000    0.93070   0.21820   0.85410   Biso      1.000     C          -0.175939           
         C18       1.0000    0.41410   0.13630   0.89040   Biso      1.000     C          0.043836  
         C19       1.0000    0.21350   0.41880   0.51200   Biso      1.000     C          0.238077  
         C20       1.0000    0.66380   0.91890   0.55320   Biso      1.000     C          -0.168977           
         C21       1.0000    0.03790   0.83180   0.09120   Biso      1.000     C          0.091933  
         C22       1.0000    0.12590   0.36190   0.51320   Biso      1.000     C          0.039767  
         C23       1.0000    0.28450   0.00310   0.44780   Biso      1.000     C          0.054707  
         C24       1.0000    0.96210   0.16820   0.90880   Biso      1.000     C          0.091934  
         C25       1.0000    0.64620   0.91970   0.18150   Biso      1.000     C          0.043087  
         C26       1.0000    0.56850   0.77590   0.14930   Biso      1.000     C          -0.193955           
         C27       1.0000    0.11710   0.25540   0.88740   Biso      1.000     C          0.090425  
         C28       1.0000    0.58840   0.76130   0.20890   Biso      1.000     C          0.021966  
         C29       1.0000    0.08890   0.30590   0.83250   Biso      1.000     C          -0.18015  
         C30       1.0000    0.88950   0.72670   0.44450   Biso      1.000     C          -0.171573           
         C31       1.0000    0.48150   0.53310   0.90240   Biso      1.000     C          -0.188058           
         C32       1.0000    0.34300   0.01880   0.55320   Biso      1.000     C          -0.178125           
         C33       1.0000    0.87410   0.63810   0.48680   Biso      1.000     C          0.039774  
         C34       1.0000    0.42300   0.17230   0.49960   Biso      1.000     C          0.213252  
         C35       1.0000    0.99490   0.28760   0.81420   Biso      1.000     C          0.05597   
         C36       1.0000    0.94600   0.60440   0.52990   Biso      1.000     C          -0.186409           
         C37       1.0000    0.63160   0.83400   0.22470   Biso      1.000     C          -0.195762           
         C38       1.0000    0.36530   0.09040   0.50010   Biso      1.000     C          0.070284  
         C39       1.0000    0.34230   0.46100   0.98800   Biso      1.000     C          -0.17293  
         C40       1.0000    0.58590   0.86370   0.10960   Biso      1.000     C          0.043844  
         C41       1.0000    0.78650   0.58120   0.48800   Biso      1.000     C          0.238056  
         C42       1.0000    0.33620   0.08110   0.44680   Biso      1.000     C          -0.168999           
         C43       1.0000    0.97260   0.34190   0.47040   Biso      1.000     C          0.054448  
         C44       1.0000    0.02740   0.65810   0.52960   Biso      1.000     C          0.054502  
         C45       1.0000    0.40100   0.62230   0.90040   Biso      1.000     C          0.082078  
         C46       1.0000    0.29150   0.94160   0.55050   Biso      1.000     C          0.05454   
         C47       1.0000    0.45210   0.45020   0.94650   Biso      1.000     C          0.071416  
         C48       1.0000    0.55520   0.67410   0.25470   Biso      1.000     C          0.232365  
         C49       1.0000    0.59900   0.37770   0.09960   Biso      1.000     C          0.082077  
         C50       1.0000    0.41160   0.23870   0.79110   Biso      1.000     C          0.021968  
         C51       1.0000    0.54790   0.54980   0.05350   Biso      1.000     C          0.071416  
         C52       1.0000    0.70850   0.05840   0.44950   Biso      1.000     C          0.054572  
         C53       1.0000    0.02740   0.22380   0.55250   Biso      1.000     C          0.02975   
         C54       1.0000    0.03820   0.65840   0.24410   Biso      1.000     C          0.247484  
         C55       1.0000    0.46710   0.64690   0.04780   Biso      1.000     C          0.227681  
         C56       1.0000    0.73500   0.44760   0.01720   Biso      1.000     C          0.077229  
         C57       1.0000    0.71550   0.99690   0.55220   Biso      1.000     C          0.054728  
         C58       1.0000    0.05400   0.39560   0.47010   Biso      1.000     C          -0.186438           
         C59       1.0000    0.35380   0.08030   0.81850   Biso      1.000     C          0.043082  
         C60       1.0000    0.06930   0.78180   0.14590   Biso      1.000     C          -0.175931           
         H1        1.0000    0.42900   0.12580   0.93130   Biso      1.000     H          0.087922  
         H2        1.0000    0.86600   0.64560   0.19350   Biso      1.000     H          0.103614  
         H3        1.0000    0.15720   0.24730   0.58620   Biso      1.000     H          0.122057  
         H4        1.0000    0.44280   0.47190   0.12610   Biso      1.000     H          0.112839  
         H5        1.0000    0.63690   0.97700   0.40920   Biso      1.000     H          0.134591  
         H6        1.0000    0.34920   0.17490   0.73550   Biso      1.000     H          0.117488  
         H7        1.0000    0.67840   0.59380   0.98040   Biso      1.000     H          0.125088  
         H8        1.0000    0.64770   0.87100   0.59070   Biso      1.000     H          0.129814  
         H9        1.0000    0.32520   0.02930   0.80740   Biso      1.000     H          0.090244  
         H10       1.0000    0.92300   0.36650   0.44100   Biso      1.000     H          0.091408  
         H11       1.0000    0.57940   0.31990   0.12950   Biso      1.000     H          0.089926  
         H12       1.0000    0.72330   0.10770   0.41300   Biso      1.000     H          0.095483  
         H13       1.0000    0.81840   0.73120   0.10000   Biso      1.000     H          0.089975  
         H14       1.0000    0.06130   0.45560   0.44050   Biso      1.000     H          0.11039   
         H15       1.0000    0.73620   0.00170   0.58930   Biso      1.000     H          0.092592  
         H16       1.0000    0.13530   0.79420   0.15690   Biso      1.000     H          0.107981  
         H17       1.0000    0.01710   0.16300   0.58170   Biso      1.000     H          0.088893  
         H18       1.0000    0.08120   0.87950   0.06420   Biso      1.000     H          0.099507  
         H19       1.0000    0.45670   0.27400   0.86390   Biso      1.000     H          0.112026  
         H20       1.0000    0.80920   0.43980   0.99060   Biso      1.000     H          0.098623  
         H21       1.0000    0.98290   0.83700   0.41830   Biso      1.000     H          0.088903  
         H22       1.0000    0.19080   0.56020   0.00940   Biso      1.000     H          0.09862   
         H23       1.0000    0.54330   0.72600   0.13610   Biso      1.000     H          0.112022  
         H24       1.0000    0.18160   0.26880   0.90000   Biso      1.000     H          0.089973  
         H25       1.0000    0.13400   0.35440   0.80650   Biso      1.000     H          0.103614  
         H26       1.0000    0.84280   0.75270   0.41380   Biso      1.000     H          0.122062  
         H27       1.0000    0.55720   0.52810   0.87390   Biso      1.000     H          0.112835  
         H28       1.0000    0.65080   0.82510   0.26450   Biso      1.000     H          0.11748   
         H29       1.0000    0.32160   0.40620   0.01960   Biso      1.000     H          0.125086  
         H30       1.0000    0.57100   0.87420   0.06870   Biso      1.000     H          0.087917  
         H31       1.0000    0.36310   0.02300   0.59080   Biso      1.000     H          0.134578  
         H32       1.0000    0.91880   0.12050   0.93580   Biso      1.000     H          0.099504  
         H33       1.0000    0.07700   0.63350   0.55900   Biso      1.000     H          0.091423  
         H34       1.0000    0.42060   0.68010   0.87050   Biso      1.000     H          0.089922  
         H35       1.0000    0.27670   0.89230   0.58700   Biso      1.000     H          0.095474  
         H36       1.0000    0.67480   0.97070   0.19260   Biso      1.000     H          0.090238  
         H37       1.0000    0.93870   0.54440   0.55950   Biso      1.000     H          0.110401  
         H38       1.0000    0.26380   0.99830   0.41070   Biso      1.000     H          0.092571  
         H39       1.0000    0.35230   0.12900   0.40930   Biso      1.000     H          0.129802  
         H40       1.0000    0.86470   0.20580   0.84310   Biso      1.000     H          0.107981  
         N1        1.0000    0.44550   0.24300   0.45000   Biso      1.000     N          -0.282976           
         N2        1.0000    0.04160   0.74350   0.49000   Biso      1.000     N          -0.195242           
         N3        1.0000    0.29520   0.62940   0.94020   Biso      1.000     N          -0.295081           
         N4        1.0000    0.86160   0.41600   0.68740   Biso      1.000     N          -0.036274           
         N5        1.0000    0.66950   0.22390   0.93450   Biso      1.000     N          -0.101718           
         N6        1.0000    0.26180   0.93380   0.49880   Biso      1.000     N          -0.174604           
         N7        1.0000    0.74250   0.57840   0.43960   Biso      1.000     N          -0.229879           
         N8        1.0000    0.61090   0.21010   0.99330   Biso      1.000     N          -0.004809           
         N9        1.0000    0.05510   0.18720   0.92420   Biso      1.000     N          -0.299067           
         N10       1.0000    0.46120   0.18330   0.54820   Biso      1.000     N          -0.281407           
         N11       1.0000    0.67100   0.47820   0.52150   Biso      1.000     N          -0.034726           
         N12       1.0000    0.52460   0.28870   0.00580   Biso      1.000     N          -0.273997           
         N13       1.0000    0.62170   0.31530   0.90720   Biso      1.000     N          -0.222876           
         N14       1.0000    0.50080   0.29950   0.46770   Biso      1.000     N          -0.036195           
         N15       1.0000    0.45640   0.56330   0.30680   Biso      1.000     N          -0.050729           
         N16       1.0000    0.54040   0.55950   0.33490   Biso      1.000     N          -0.026042           
         N17       1.0000    0.85240   0.36320   0.74570   Biso      1.000     N          -0.228942           
         N18       1.0000    0.66920   0.51370   0.46240   Biso      1.000     N          -0.054151           
         N19       1.0000    0.03620   0.38010   0.70530   Biso      1.000     N          -0.217025           
         N20       1.0000    0.51040   0.26360   0.52680   Biso      1.000     N          -0.01881  
         N21       1.0000    0.60520   0.62930   0.30300   Biso      1.000     N          -0.227652           
         N22       1.0000    0.46370   0.63430   0.25560   Biso      1.000     N          -0.228037           
         N23       1.0000    0.74360   0.51970   0.53910   Biso      1.000     N          -0.225883           
         N24       1.0000    0.37690   0.06380   0.87500   Biso      1.000     N          -0.20958  
         N25       1.0000    0.49920   0.70050   0.53230   Biso      1.000     N          -0.036217           
         N26       1.0000    0.53630   0.36570   0.74440   Biso      1.000     N          -0.228054           
         N27       1.0000    0.97140   0.42610   0.66290   Biso      1.000     N          -0.062585           
         N28       1.0000    0.48960   0.73640   0.47320   Biso      1.000     N          -0.018793           
         N29       1.0000    0.55450   0.75700   0.55000   Biso      1.000     N          -0.282939           
         N30       1.0000    0.33050   0.77610   0.06550   Biso      1.000     N          -0.101719           
         N31       1.0000    0.25750   0.42160   0.56040   Biso      1.000     N          -0.229903           
         N32       1.0000    0.73820   0.06620   0.50120   Biso      1.000     N          -0.1746   
         N33       1.0000    0.94490   0.81280   0.07580   Biso      1.000     N          -0.299057           
         N34       1.0000    0.13840   0.58400   0.31260   Biso      1.000     N          -0.036288           
         N35       1.0000    0.70480   0.37060   0.05980   Biso      1.000     N          -0.295078           
         N36       1.0000    0.95840   0.25650   0.51000   Biso      1.000     N          -0.195279           
         N37       1.0000    0.02860   0.57390   0.33710   Biso      1.000     N          -0.062599           
         N38       1.0000    0.38910   0.78990   0.00670   Biso      1.000     N          -0.004807           
         N39       1.0000    0.25640   0.48030   0.46090   Biso      1.000     N          -0.225942           
         N40       1.0000    0.47540   0.71130   0.99420   Biso      1.000     N          -0.273992           
         N41       1.0000    0.37830   0.68470   0.09280   Biso      1.000     N          -0.22288  
         N42       1.0000    0.54360   0.43670   0.69320   Biso      1.000     N          -0.050682           
         N43       1.0000    0.45960   0.44050   0.66510   Biso      1.000     N          -0.026067           
         N44       1.0000    0.14760   0.63680   0.25430   Biso      1.000     N          -0.228936           
         N45       1.0000    0.33080   0.48630   0.53760   Biso      1.000     N          -0.05424  
         N46       1.0000    0.96380   0.61990   0.29470   Biso      1.000     N          -0.216995           
         N47       1.0000    0.32900   0.52180   0.47850   Biso      1.000     N          -0.034613           
         N48       1.0000    0.39480   0.37070   0.69700   Biso      1.000     N          -0.227647           
         N49       1.0000    0.53880   0.81670   0.45180   Biso      1.000     N          -0.281365           
         N50       1.0000    0.62310   0.93620   0.12500   Biso      1.000     N          -0.209594 