
##########################################################################
#               Crystallographic Information Format file
#               Produced by PyCifRW module
#
#  This is a CIF file.  CIF has been adopted by the International
#  Union of Crystallography as the standard for data archiving and
#  transmission.
#
#  For information on this file format, follow the CIF links at
#  http://www.iucr.org
##########################################################################

data_image0

_cell_length_a                          7.0688
_cell_length_b                          11.4644
_cell_length_c                          16.421
_cell_angle_alpha                       82.92
_cell_angle_beta                        77.5706
_cell_angle_gamma                       72.0436
_symmetry_space_group_name_H-M          'P 1'
_symmetry_int_tables_number             1
loop_
  _symmetry_equiv_pos_as_xyz
         'x, y, z' 
loop_
  _atom_site_label
  _atom_site_occupancy
  _atom_site_fract_x
  _atom_site_fract_y
  _atom_site_fract_z
  _atom_site_thermal_displace_type
  _atom_site_B_iso_or_equiv
  _atom_site_type_symbol
  _atom_site_charge
         C1        1.0000    0.91800   0.99020   0.72180   Biso      1.000     C          0.62346   
         C2        1.0000    0.32710   0.96220   0.02560   Biso      1.000     C          -0.096405           
         C3        1.0000    0.08200   0.00980   0.27820   Biso      1.000     C          0.623459  
         C4        1.0000    0.56940   0.31300   0.75820   Biso      1.000     C          -0.103561           
         C5        1.0000    0.35940   0.81300   0.25820   Biso      1.000     C          -0.1091   
         C6        1.0000    0.08890   0.68750   0.24470   Biso      1.000     C          -0.106457           
         C7        1.0000    0.61000   0.13950   0.10850   Biso      1.000     C          0.619289  
         C8        1.0000    0.67100   0.43450   0.44750   Biso      1.000     C          -0.016597           
         C9        1.0000    0.68510   0.46220   0.52560   Biso      1.000     C          -0.095171           
         C10       1.0000    0.61960   0.97120   0.92360   Biso      1.000     C          -0.105696           
         C11       1.0000    0.51440   0.52880   0.57640   Biso      1.000     C          -0.107574           
         C12       1.0000    0.85800   0.36050   0.39150   Biso      1.000     C          0.616695  
         C13       1.0000    0.70530   0.37270   0.76470   Biso      1.000     C          -0.019343           
         C14       1.0000    0.44700   0.93450   0.94750   Biso      1.000     C          -0.018314           
         C15       1.0000    0.37000   0.49020   0.22180   Biso      1.000     C          0.622559  
         C16       1.0000    0.84270   0.12730   0.73530   Biso      1.000     C          -0.019686           
         C17       1.0000    0.64060   0.18700   0.74180   Biso      1.000     C          -0.10909  
         C18       1.0000    0.39000   0.86050   0.89150   Biso      1.000     C          0.619289  
         C19       1.0000    0.55300   0.06550   0.05250   Biso      1.000     C          -0.018319           
         C20       1.0000    0.38040   0.02880   0.07640   Biso      1.000     C          -0.105686           
         C21       1.0000    0.48560   0.47120   0.42360   Biso      1.000     C          -0.107578           
         C22       1.0000    0.67290   0.03780   0.97440   Biso      1.000     C          -0.096399           
         C23       1.0000    0.97890   0.18750   0.74470   Biso      1.000     C          -0.102647           
         C24       1.0000    0.43060   0.68700   0.24180   Biso      1.000     C          -0.103559           
         C25       1.0000    0.31490   0.53780   0.47440   Biso      1.000     C          -0.095168           
         C26       1.0000    0.29470   0.62730   0.23530   Biso      1.000     C          -0.019342           
         C27       1.0000    0.14200   0.63950   0.60850   Biso      1.000     C          0.616695  
         C28       1.0000    0.32900   0.56550   0.55250   Biso      1.000     C          -0.016596           
         C29       1.0000    0.91110   0.31250   0.75530   Biso      1.000     C          -0.106452           
         C30       1.0000    0.63000   0.50980   0.77820   Biso      1.000     C          0.622559  
         C31       1.0000    0.15730   0.87270   0.26470   Biso      1.000     C          -0.019677           
         C32       1.0000    0.02110   0.81250   0.25530   Biso      1.000     C          -0.102643           
         Cd1       1.0000    0.27149   0.75069   0.77851   Biso      1.000     Cd          1.040689  
         Cd2       1.0000    0.19931   0.25069   0.27851   Biso      1.000     Cd          1.039796  
         Cd3       1.0000    0.80069   0.74931   0.72149   Biso      1.000     Cd          1.039796  
         Cd4       1.0000    0.72851   0.24931   0.22149   Biso      1.000     Cd          1.040689  
         H1        1.0000    0.80910   0.43610   0.54330   Biso      1.000     H          0.121947  
         H2        1.0000    0.56840   0.64540   0.23540   Biso      1.000     H          0.125083  
         H3        1.0000    0.43160   0.35460   0.76460   Biso      1.000     H          0.125084  
         H4        1.0000    0.00190   0.35570   0.75630   Biso      1.000     H          0.126443  
         H5        1.0000    0.52400   0.54940   0.62800   Biso      1.000     H          0.099806  
         H6        1.0000    0.47600   0.45060   0.37200   Biso      1.000     H          0.099806  
         H7        1.0000    0.88610   0.85570   0.25630   Biso      1.000     H          0.125373  
         H8        1.0000    0.99810   0.64430   0.24370   Biso      1.000     H          0.126443  
         H9        1.0000    0.19090   0.56390   0.45670   Biso      1.000     H          0.121947  
         H10       1.0000    0.55080   0.14540   0.73540   Biso      1.000     H          0.12655   
         H11       1.0000    0.29860   0.04940   0.12800   Biso      1.000     H          0.100236  
         H12       1.0000    0.78850   0.06390   0.95670   Biso      1.000     H          0.121747  
         H13       1.0000    0.21150   0.93610   0.04330   Biso      1.000     H          0.121747  
         H14       1.0000    0.11390   0.14430   0.74370   Biso      1.000     H          0.125373  
         H15       1.0000    0.70140   0.95060   0.87200   Biso      1.000     H          0.100237  
         H16       1.0000    0.44920   0.85460   0.26460   Biso      1.000     H          0.126551  
         O1        1.0000    0.80430   0.94330   0.69810   Biso      1.000     O          -0.561134           
         O2        1.0000    0.08950   0.93670   0.73430   Biso      1.000     O          -0.583002           
         O3        1.0000    0.97980   0.67320   0.58720   Biso      1.000     O          -0.511947           
         O4        1.0000    0.55430   0.44330   0.19810   Biso      1.000     O          -0.562455           
         O5        1.0000    0.50390   0.83870   0.81950   Biso      1.000     O          -0.64831  
         O6        1.0000    0.24020   0.82680   0.91280   Biso      1.000     O          -0.513269           
         O7        1.0000    0.49610   0.16130   0.18050   Biso      1.000     O          -0.64831  
         O8        1.0000    0.23950   0.43670   0.23430   Biso      1.000     O          -0.581186           
         O9        1.0000    0.19570   0.05670   0.30190   Biso      1.000     O          -0.561133           
         O10       1.0000    0.91050   0.06330   0.26570   Biso      1.000     O          -0.583002           
         O11       1.0000    0.02020   0.32680   0.41280   Biso      1.000     O          -0.511947           
         O12       1.0000    0.76050   0.56330   0.76570   Biso      1.000     O          -0.581186           
         O13       1.0000    0.16210   0.66130   0.68050   Biso      1.000     O          -0.647842           
         O14       1.0000    0.75980   0.17320   0.08720   Biso      1.000     O          -0.513269           
         O15       1.0000    0.44570   0.55670   0.80190   Biso      1.000     O          -0.562455           
         O16       1.0000    0.83790   0.33870   0.31950   Biso      1.000     O          -0.647842 