
##########################################################################
#               Crystallographic Information Format file
#               Produced by PyCifRW module
#
#  This is a CIF file.  CIF has been adopted by the International
#  Union of Crystallography as the standard for data archiving and
#  transmission.
#
#  For information on this file format, follow the CIF links at
#  http://www.iucr.org
##########################################################################

data_image0

_cell_length_a                          8.9687
_cell_length_b                          10.906
_cell_length_c                          14.585
_cell_angle_alpha                       96.567
_cell_angle_beta                        90
_cell_angle_gamma                       90
_symmetry_space_group_name_H-M          'P 1'
_symmetry_int_tables_number             1
loop_
  _symmetry_equiv_pos_as_xyz
         'x, y, z' 
loop_
  _atom_site_label
  _atom_site_occupancy
  _atom_site_fract_x
  _atom_site_fract_y
  _atom_site_fract_z
  _atom_site_thermal_displace_type
  _atom_site_B_iso_or_equiv
  _atom_site_type_symbol
  _atom_site_charge
         C1        1.0000    0.45240   0.35270   0.01310   Biso      1.000     C          -0.28436500000000003          
         C2        1.0000    0.40610   0.20730   0.58340   Biso      1.000     C          0.551099  
         C3        1.0000    0.47380   0.87070   0.53030   Biso      1.000     C          -0.288927           
         C4        1.0000    0.28260   0.28400   0.62580   Biso      1.000     C          -0.364295           
         C5        1.0000    0.50290   0.78190   0.76050   Biso      1.000     C          0.123839  
         C6        1.0000    0.33470   0.39350   0.69190   Biso      1.000     C          0.030376  
         C7        1.0000    0.37540   0.63000   0.17220   Biso      1.000     C          0.541339  
         C8        1.0000    0.00000   0.78680   0.77600   Biso      1.000     C          0.143023  
         C9        1.0000    0.50210   0.00790   0.52430   Biso      1.000     C          0.034572000000000006          
         C10       1.0000    0.34380   0.75840   0.65000   Biso      1.000     C          -0.14936300000000002          
         C11       1.0000    0.45760   0.82840   0.62280   Biso      1.000     C          0.19689   
         C12       1.0000    0.26320   0.79120   0.28740   Biso      1.000     C          0.013765000000000001          
         C13       1.0000    0.25330   0.66100   0.24060   Biso      1.000     C          -0.35939  
         C14       1.0000    0.46050   0.49250   0.03800   Biso      1.000     C          0.035392  
         C15       1.0000    0.43910   0.55210   0.94760   Biso      1.000     C          0.565337  
         C16       1.0000    0.48140   0.02650   0.42290   Biso      1.000     C          0.57997   
         C17       1.0000    0.44410   0.28330   0.09440   Biso      1.000     C          0.179795  
         C18       1.0000    0.83550   0.79490   0.88290   Biso      1.000     C          -0.153088           
         C19       1.0000    0.93910   0.44790   0.05240   Biso      1.000     C          0.565337  
         C20       1.0000    0.90610   0.79270   0.41660   Biso      1.000     C          0.551099  
         C21       1.0000    0.97380   0.12930   0.46970   Biso      1.000     C          -0.288927           
         C22       1.0000    0.78260   0.71600   0.37420   Biso      1.000     C          -0.364294           
         C23       1.0000    0.00290   0.21810   0.23950   Biso      1.000     C          0.12383800000000002           
         C24       1.0000    0.83470   0.60650   0.30810   Biso      1.000     C          0.030376  
         C25       1.0000    0.87540   0.37000   0.82780   Biso      1.000     C          0.541338  
         C26       1.0000    0.94410   0.71670   0.90560   Biso      1.000     C          0.179809  
         C27       1.0000    0.00210   0.99210   0.47570   Biso      1.000     C          0.034571  
         C28       1.0000    0.84380   0.24160   0.35000   Biso      1.000     C          -0.14936300000000002          
         C29       1.0000    0.95760   0.17160   0.37720   Biso      1.000     C          0.19689   
         C30       1.0000    0.76320   0.20880   0.71260   Biso      1.000     C          0.013766  
         C31       1.0000    0.75330   0.33900   0.75940   Biso      1.000     C          -0.35939  
         C32       1.0000    0.95240   0.64730   0.98690   Biso      1.000     C          -0.284366           
         C33       1.0000    0.96050   0.50750   0.96200   Biso      1.000     C          0.035392  
         C34       1.0000    0.98140   0.97350   0.57710   Biso      1.000     C          0.57997   
         C35       1.0000    0.50000   0.21320   0.22400   Biso      1.000     C          0.143023  
         C36       1.0000    0.33550   0.20510   0.11710   Biso      1.000     C          -0.153074           
         H1        1.0000    0.65610   0.35030   0.79130   Biso      1.000     H          0.130668  
         H2        1.0000    0.22280   0.31490   0.57620   Biso      1.000     H          0.14494200000000002           
         H3        1.0000    0.21680   0.23170   0.65960   Biso      1.000     H          0.137996  
         H4        1.0000    0.55010   0.77710   0.81830   Biso      1.000     H          0.078455  
         H5        1.0000    0.40640   0.44280   0.65980   Biso      1.000     H          0.091816  
         H6        1.0000    0.38710   0.36300   0.74460   Biso      1.000     H          0.090292  
         H7        1.0000    0.32870   0.04980   0.61460   Biso      1.000     H          0.299425  
         H8        1.0000    0.60640   0.02980   0.54410   Biso      1.000     H          0.078216  
         H9        1.0000    0.25870   0.50460   0.10220   Biso      1.000     H          0.292952  
         H10       1.0000    0.75740   0.39700   0.71200   Biso      1.000     H          0.162662  
         H11       1.0000    0.36630   0.80660   0.31000   Biso      1.000     H          0.09514   
         H12       1.0000    0.38190   0.84720   0.49500   Biso      1.000     H          0.130302  
         H13       1.0000    0.19640   0.79930   0.34180   Biso      1.000     H          0.094872  
         H14       1.0000    0.12340   0.87830   0.21060   Biso      1.000     H          0.310946  
         H15       1.0000    0.15610   0.64970   0.20870   Biso      1.000     H          0.130668  
         H16       1.0000    0.25740   0.60300   0.28800   Biso      1.000     H          0.162662  
         H17       1.0000    0.54150   0.32520   0.97640   Biso      1.000     H          0.12798800000000002           
         H18       1.0000    0.36360   0.33280   0.97400   Biso      1.000     H          0.129115  
         H19       1.0000    0.56160   0.51470   0.06370   Biso      1.000     H          0.081953  
         H20       1.0000    0.24820   0.18490   0.08170   Biso      1.000     H          0.11848800000000001           
         H21       1.0000    0.55040   0.20000   0.27930   Biso      1.000     H          0.084262  
         H22       1.0000    0.15600   0.49610   0.67710   Biso      1.000     H          0.312917  
         H23       1.0000    0.14350   0.42660   0.75810   Biso      1.000     H          0.30877899999999997           
         H24       1.0000    0.27720   0.87470   0.17320   Biso      1.000     H          0.321117  
         H25       1.0000    0.55690   0.82380   0.49840   Biso      1.000     H          0.127697  
         H26       1.0000    0.25850   0.73280   0.61410   Biso      1.000     H          0.125475  
         H27       1.0000    0.65600   0.50390   0.32290   Biso      1.000     H          0.312917  
         H28       1.0000    0.64350   0.57340   0.24190   Biso      1.000     H          0.30877899999999997           
         H29       1.0000    0.77720   0.12530   0.82680   Biso      1.000     H          0.32111799999999996           
         H30       1.0000    0.69640   0.20070   0.65820   Biso      1.000     H          0.094871  
         H31       1.0000    0.86630   0.19340   0.69000   Biso      1.000     H          0.09514   
         H32       1.0000    0.75850   0.26720   0.38590   Biso      1.000     H          0.125475  
         H33       1.0000    0.75870   0.49540   0.89780   Biso      1.000     H          0.292953  
         H34       1.0000    0.10640   0.97020   0.45590   Biso      1.000     H          0.078216  
         H35       1.0000    0.82870   0.95020   0.38540   Biso      1.000     H          0.299425  
         H36       1.0000    0.88710   0.63700   0.25540   Biso      1.000     H          0.090292  
         H37       1.0000    0.90640   0.55720   0.34020   Biso      1.000     H          0.091816  
         H38       1.0000    0.05010   0.22290   0.18170   Biso      1.000     H          0.078455  
         H39       1.0000    0.62340   0.12170   0.78940   Biso      1.000     H          0.31094499999999997           
         H40       1.0000    0.72280   0.68510   0.42380   Biso      1.000     H          0.14494200000000002           
         H41       1.0000    0.71680   0.76830   0.34040   Biso      1.000     H          0.137995  
         H42       1.0000    0.74820   0.81510   0.91830   Biso      1.000     H          0.11849000000000001           
         H43       1.0000    0.06160   0.48530   0.93630   Biso      1.000     H          0.081953  
         H44       1.0000    0.86360   0.66720   0.02600   Biso      1.000     H          0.129116  
         H45       1.0000    0.05040   0.80000   0.72070   Biso      1.000     H          0.084262  
         H46       1.0000    0.04150   0.67480   0.02360   Biso      1.000     H          0.12798800000000002           
         H47       1.0000    0.05690   0.17620   0.50160   Biso      1.000     H          0.127698  
         H48       1.0000    0.88190   0.15280   0.50500   Biso      1.000     H          0.130302  
         N1        1.0000    0.84790   0.46150   0.89440   Biso      1.000     N          -0.409539           
         N2        1.0000    0.39650   0.08360   0.58190   Biso      1.000     N          -0.42541  
         N3        1.0000    0.06330   0.15720   0.30750   Biso      1.000     N          -0.381734           
         N4        1.0000    0.72230   0.11170   0.77340   Biso      1.000     N          -0.5857   
         N5        1.0000    0.05360   0.71230   0.83580   Biso      1.000     N          -0.373569           
         N6        1.0000    0.86990   0.84080   0.80100   Biso      1.000     N          -0.302663           
         N7        1.0000    0.87300   0.26940   0.26180   Biso      1.000     N          -0.289667           
         N8        1.0000    0.70700   0.52580   0.27250   Biso      1.000     N          -0.596105           
         N9        1.0000    0.89650   0.91640   0.41810   Biso      1.000     N          -0.42541  
         N10       1.0000    0.34790   0.53850   0.10560   Biso      1.000     N          -0.409539           
         N11       1.0000    0.36990   0.15920   0.19900   Biso      1.000     N          -0.302665           
         N12       1.0000    0.22230   0.88830   0.22660   Biso      1.000     N          -0.5856979999999999           
         N13       1.0000    0.55360   0.28770   0.16420   Biso      1.000     N          -0.373567           
         N14       1.0000    0.37300   0.73060   0.73820   Biso      1.000     N          -0.289668           
         N15       1.0000    0.20700   0.47420   0.72750   Biso      1.000     N          -0.596105           
         N16       1.0000    0.56330   0.84280   0.69250   Biso      1.000     N          -0.381735           
         O1        1.0000    0.00010   0.31920   0.81960   Biso      1.000     O          -0.552871           
         O2        1.0000    0.85150   0.93910   0.60000   Biso      1.000     O          -0.559584           
         O3        1.0000    0.04310   0.45580   0.10980   Biso      1.000     O          -0.5677840000000001           
         O4        1.0000    0.81230   0.39720   0.06500   Biso      1.000     O          -0.547162           
         O5        1.0000    0.58920   0.00020   0.36940   Biso      1.000     O          -0.582353           
         O6        1.0000    0.51530   0.25510   0.54730   Biso      1.000     O          -0.5562520000000001           
         O7        1.0000    0.50010   0.68080   0.18040   Biso      1.000     O          -0.552871           
         O8        1.0000    0.01530   0.74490   0.45270   Biso      1.000     O          -0.5562520000000001           
         O9        1.0000    0.54310   0.54420   0.89020   Biso      1.000     O          -0.5677840000000001           
         O10       1.0000    0.31230   0.60280   0.93500   Biso      1.000     O          -0.547162           
         O11       1.0000    0.08920   0.99980   0.63060   Biso      1.000     O          -0.5823520000000001           
         O12       1.0000    0.35150   0.06090   0.40000   Biso      1.000     O          -0.5595829999999999           
         Zn1       1.0000    0.24755   0.63087   0.81218   Biso      1.000     Zn          0.724342  
         Zn2       1.0000    0.75328   0.93480   0.71903   Biso      1.000     Zn          0.733593  
         Zn3       1.0000    0.74755   0.36913   0.18782   Biso      1.000     Zn          0.724341  
         Zn4       1.0000    0.25328   0.06520   0.28097   Biso      1.000     Zn          0.733593 