
##########################################################################
#               Crystallographic Information Format file
#               Produced by PyCifRW module
#
#  This is a CIF file.  CIF has been adopted by the International
#  Union of Crystallography as the standard for data archiving and
#  transmission.
#
#  For information on this file format, follow the CIF links at
#  http://www.iucr.org
##########################################################################

data_image0

_cell_length_a                          6.718
_cell_length_b                          13.507
_cell_length_c                          15.229
_cell_angle_alpha                       90
_cell_angle_beta                        90
_cell_angle_gamma                       90
_symmetry_space_group_name_H-M          'P 1'
_symmetry_int_tables_number             1
loop_
  _symmetry_equiv_pos_as_xyz
         'x, y, z' 
loop_
  _atom_site_label
  _atom_site_occupancy
  _atom_site_fract_x
  _atom_site_fract_y
  _atom_site_fract_z
  _atom_site_thermal_displace_type
  _atom_site_B_iso_or_equiv
  _atom_site_type_symbol
  _atom_site_charge
         C1        1.0000    0.64040   0.35360   0.57760   Biso      1.000     C          0.596417  
         C2        1.0000    0.64070   0.73920   0.57750   Biso      1.000     C          -0.086131           
         C3        1.0000    0.13740   0.96340   0.37840   Biso      1.000     C          0.052351  
         C4        1.0000    0.85930   0.26080   0.07750   Biso      1.000     C          -0.086131           
         C5        1.0000    0.63350   0.56880   0.53250   Biso      1.000     C          -0.151921           
         C6        1.0000    0.85200   0.28800   0.16340   Biso      1.000     C          -0.144351           
         C7        1.0000    0.35660   0.93510   0.85490   Biso      1.000     C          -0.077902           
         C8        1.0000    0.35780   0.07890   0.72160   Biso      1.000     C          -0.06364  
         C9        1.0000    0.64260   0.61040   0.68960   Biso      1.000     C          0.05946900000000001           
         C10       1.0000    0.86650   0.43120   0.03250   Biso      1.000     C          -0.15192  
         C11       1.0000    0.36650   0.16670   0.98880   Biso      1.000     C          -0.08795599999999999          
         C12       1.0000    0.14420   0.85090   0.14350   Biso      1.000     C          0.6294390000000001  
         C13       1.0000    0.63740   0.53660   0.62160   Biso      1.000     C          0.052351  
         C14       1.0000    0.85780   0.42110   0.27840   Biso      1.000     C          -0.063641           
         C15       1.0000    0.86030   0.52060   0.29800   Biso      1.000     C          -0.10564000000000001          
         C16       1.0000    0.64420   0.64910   0.85650   Biso      1.000     C          0.6294390000000001  
         C17       1.0000    0.85960   0.64640   0.07760   Biso      1.000     C          0.596417  
         C18       1.0000    0.85740   0.38960   0.18960   Biso      1.000     C          0.05946799999999999           
         C19       1.0000    0.14800   0.78800   0.33660   Biso      1.000     C          -0.14436400000000002          
         C20       1.0000    0.13350   0.83330   0.48880   Biso      1.000     C          -0.08795599999999999          
         C21       1.0000    0.35200   0.21200   0.83660   Biso      1.000     C          -0.14436400000000002          
         C22       1.0000    0.13350   0.93120   0.46750   Biso      1.000     C          -0.15191300000000002          
         C23       1.0000    0.36030   0.97940   0.70200   Biso      1.000     C          -0.10564000000000001          
         C24       1.0000    0.85150   0.59270   0.23170   Biso      1.000     C          -0.11003900000000001          
         C25       1.0000    0.14070   0.76080   0.42250   Biso      1.000     C          -0.086117           
         C26       1.0000    0.13970   0.02060   0.20200   Biso      1.000     C          -0.105644           
         C27       1.0000    0.14340   0.06490   0.35490   Biso      1.000     C          -0.077902           
         C28       1.0000    0.36650   0.06880   0.96750   Biso      1.000     C          -0.15191300000000002          
         C29       1.0000    0.64850   0.40730   0.73170   Biso      1.000     C          -0.11003800000000001          
         C30       1.0000    0.35960   0.85360   0.92240   Biso      1.000     C          0.596417  
         C31       1.0000    0.63970   0.47940   0.79800   Biso      1.000     C          -0.105644           
         C32       1.0000    0.85660   0.56490   0.14510   Biso      1.000     C          -0.077896           
         C33       1.0000    0.36260   0.03660   0.87840   Biso      1.000     C          0.052351  
         C34       1.0000    0.64800   0.71200   0.66340   Biso      1.000     C          -0.144351           
         C35       1.0000    0.86650   0.33330   0.01120   Biso      1.000     C          -0.087948           
         C36       1.0000    0.35930   0.23920   0.92250   Biso      1.000     C          -0.086117           
         C37       1.0000    0.35150   0.90730   0.76830   Biso      1.000     C          -0.11003299999999999          
         C38       1.0000    0.14850   0.09270   0.26830   Biso      1.000     C          -0.11003299999999999          
         C39       1.0000    0.63350   0.66670   0.51120   Biso      1.000     C          -0.087948           
         C40       1.0000    0.14260   0.88960   0.31040   Biso      1.000     C          0.05947   
         C41       1.0000    0.35580   0.14910   0.64350   Biso      1.000     C          0.62944   
         C42       1.0000    0.14220   0.92110   0.22160   Biso      1.000     C          -0.063637           
         C43       1.0000    0.64220   0.57890   0.77840   Biso      1.000     C          -0.063637           
         C44       1.0000    0.85580   0.35090   0.35650   Biso      1.000     C          0.6294390000000001  
         C45       1.0000    0.86260   0.46340   0.12160   Biso      1.000     C          0.052351  
         C46       1.0000    0.35740   0.11040   0.81040   Biso      1.000     C          0.05946900000000001           
         C47       1.0000    0.64340   0.43510   0.64510   Biso      1.000     C          -0.07789700000000001          
         C48       1.0000    0.14040   0.14640   0.42240   Biso      1.000     C          0.596417  
         Cd1       1.0000    0.63223   0.19377   0.46847   Biso      1.000     Cd          1.118943  
         Cd2       1.0000    0.13223   0.30623   0.53153   Biso      1.000     Cd          1.118943  
         Cd3       1.0000    0.86777   0.80623   0.96847   Biso      1.000     Cd          1.118943  
         Cd4       1.0000    0.36777   0.69377   0.03153   Biso      1.000     Cd          1.118943  
         H1        1.0000    0.86830   0.54090   0.35760   Biso      1.000     H          0.116646  
         H2        1.0000    0.37140   0.18620   0.04870   Biso      1.000     H          0.109573  
         H3        1.0000    0.84310   0.23820   0.20720   Biso      1.000     H          0.114503  
         H4        1.0000    0.34200   0.83920   0.75310   Biso      1.000     H          0.122724  
         H5        1.0000    0.65800   0.33920   0.74690   Biso      1.000     H          0.122724  
         H6        1.0000    0.85950   0.19260   0.06220   Biso      1.000     H          0.109838  
         H7        1.0000    0.87140   0.31380   0.95130   Biso      1.000     H          0.109572  
         H8        1.0000    0.34310   0.26180   0.79280   Biso      1.000     H          0.114503  
         H9        1.0000    0.12860   0.81380   0.54870   Biso      1.000     H          0.109573  
         H10       1.0000    0.13080   0.97920   0.51310   Biso      1.000     H          0.117174  
         H11       1.0000    0.15690   0.73820   0.29280   Biso      1.000     H          0.114503  
         H12       1.0000    0.63170   0.45910   0.85760   Biso      1.000     H          0.116647  
         H13       1.0000    0.64050   0.80740   0.56220   Biso      1.000     H          0.109838  
         H14       1.0000    0.36920   0.02080   0.01310   Biso      1.000     H          0.117174  
         H15       1.0000    0.35950   0.30740   0.93780   Biso      1.000     H          0.10983699999999999           
         H16       1.0000    0.65690   0.76180   0.70720   Biso      1.000     H          0.114503  
         H17       1.0000    0.13170   0.04090   0.14240   Biso      1.000     H          0.116647  
         H18       1.0000    0.84200   0.66080   0.24690   Biso      1.000     H          0.122724  
         H19       1.0000    0.15800   0.16080   0.25310   Biso      1.000     H          0.122724  
         H20       1.0000    0.14050   0.69260   0.43780   Biso      1.000     H          0.10983699999999999           
         H21       1.0000    0.86920   0.47920   0.98690   Biso      1.000     H          0.117175  
         H22       1.0000    0.36830   0.95910   0.64240   Biso      1.000     H          0.116647  
         H23       1.0000    0.62860   0.68620   0.45130   Biso      1.000     H          0.109572  
         H24       1.0000    0.63080   0.52080   0.48690   Biso      1.000     H          0.117175  
         O1        1.0000    0.45290   0.12120   0.57680   Biso      1.000     O          -0.5968220000000001           
         O2        1.0000    0.74840   0.72620   0.85080   Biso      1.000     O          -0.556085           
         O3        1.0000    0.99170   0.64780   0.01890   Biso      1.000     O          -0.583071           
         O4        1.0000    0.75160   0.27380   0.35080   Biso      1.000     O          -0.556085           
         O5        1.0000    0.77190   0.28620   0.58460   Biso      1.000     O          -0.583534           
         O6        1.0000    0.22810   0.78620   0.91540   Biso      1.000     O          -0.583534           
         O7        1.0000    0.49170   0.85220   0.98110   Biso      1.000     O          -0.583071           
         O8        1.0000    0.00830   0.14780   0.48110   Biso      1.000     O          -0.583071           
         O9        1.0000    0.04710   0.87880   0.07680   Biso      1.000     O          -0.5968220000000001           
         O10       1.0000    0.25160   0.22620   0.64920   Biso      1.000     O          -0.556085           
         O11       1.0000    0.95290   0.37880   0.42320   Biso      1.000     O          -0.5968220000000001           
         O12       1.0000    0.24840   0.77380   0.14920   Biso      1.000     O          -0.556085           
         O13       1.0000    0.72810   0.71380   0.08460   Biso      1.000     O          -0.583534           
         O14       1.0000    0.50830   0.35220   0.51890   Biso      1.000     O          -0.583071           
         O15       1.0000    0.27190   0.21380   0.41540   Biso      1.000     O          -0.583534           
         O16       1.0000    0.54710   0.62120   0.92320   Biso      1.000     O          -0.5968220000000001 