
##########################################################################
#               Crystallographic Information Format file
#               Produced by PyCifRW module
#
#  This is a CIF file.  CIF has been adopted by the International
#  Union of Crystallography as the standard for data archiving and
#  transmission.
#
#  For information on this file format, follow the CIF links at
#  http://www.iucr.org
##########################################################################

data_image0

_cell_length_a                          15.1738
_cell_length_b                          15.1738
_cell_length_c                          18.859
_cell_angle_alpha                       90
_cell_angle_beta                        90
_cell_angle_gamma                       120
_symmetry_space_group_name_H-M          'P 1'
_symmetry_int_tables_number             1
loop_
  _symmetry_equiv_pos_as_xyz
         'x, y, z' 
loop_
  _atom_site_label
  _atom_site_occupancy
  _atom_site_fract_x
  _atom_site_fract_y
  _atom_site_fract_z
  _atom_site_thermal_displace_type
  _atom_site_B_iso_or_equiv
  _atom_site_type_symbol
  _atom_site_charge
         C1        1.0000    0.48472   0.48472   0.16667   Biso      1.000     C          0.056624  
         C2        1.0000    0.76139   0.66471   0.98740   Biso      1.000     C          -0.162079           
         C3        1.0000    0.05100   0.17527   0.95896   Biso      1.000     C          -0.13233699999999998          
         C4        1.0000    0.12427   0.94900   0.62562   Biso      1.000     C          -0.132928           
         C5        1.0000    0.94130   0.21058   0.71176   Biso      1.000     C          0.05249500000000001           
         C6        1.0000    0.33198   0.36325   0.22304   Biso      1.000     C          0.090884  
         C7        1.0000    0.63675   0.96873   0.55637   Biso      1.000     C          0.091752  
         C8        1.0000    0.97530   0.18657   0.41012   Biso      1.000     C          0.61888   
         C9        1.0000    0.78873   0.81343   0.58988   Biso      1.000     C          0.6188779999999999  
         C10       1.0000    0.94900   0.12427   0.70771   Biso      1.000     C          -0.13411800000000001          
         C11       1.0000    0.82417   0.69850   0.92777   Biso      1.000     C          0.085989  
         C12       1.0000    0.99010   0.43790   0.37067   Biso      1.000     C          0.06379299999999999           
         C13       1.0000    0.56210   0.55220   0.70400   Biso      1.000     C          0.064215  
         C14       1.0000    0.97192   0.27519   0.77680   Biso      1.000     C          0.375786  
         C15       1.0000    0.03127   0.66802   0.88971   Biso      1.000     C          0.092727  
         C16       1.0000    0.02808   0.30327   0.88987   Biso      1.000     C          0.37453600000000004           
         C17       1.0000    0.30150   0.12567   0.26111   Biso      1.000     C          0.087085  
         C18       1.0000    0.17527   0.05100   0.37438   Biso      1.000     C          -0.132931           
         C19       1.0000    0.72201   0.70981   0.70339   Biso      1.000     C          -0.12490899999999999          
         C20       1.0000    0.08216   0.14934   0.01948   Biso      1.000     C          0.11228699999999998           
         C21       1.0000    0.58281   0.58281   0.16667   Biso      1.000     C          0.375417  
         C22       1.0000    0.00000   0.51528   0.83333   Biso      1.000     C          0.056625  
         C23       1.0000    0.69850   0.82417   0.40556   Biso      1.000     C          0.086107  
         C24       1.0000    0.72481   0.69673   0.11013   Biso      1.000     C          0.37453800000000004           
         C25       1.0000    0.26928   0.05870   0.37843   Biso      1.000     C          0.052944000000000005          
         C26       1.0000    0.41719   0.00000   0.50000   Biso      1.000     C          0.375832  
         C27       1.0000    0.02470   0.21127   0.25655   Biso      1.000     C          0.619686  
         C28       1.0000    0.06718   0.91784   0.68614   Biso      1.000     C          0.11354600000000001           
         C29       1.0000    0.64710   0.62330   0.73750   Biso      1.000     C          0.14491600000000002           
         C30       1.0000    0.51528   0.00000   0.50000   Biso      1.000     C          0.056392  
         C31       1.0000    0.55220   0.56210   0.62933   Biso      1.000     C          0.0638    
         C32       1.0000    0.35290   0.97620   0.92916   Biso      1.000     C          0.14318   
         C33       1.0000    0.90332   0.23861   0.65407   Biso      1.000     C          -0.161635           
         C34       1.0000    0.78942   0.73072   0.04509   Biso      1.000     C          0.053135  
         C35       1.0000    0.85066   0.93282   0.35281   Biso      1.000     C          0.11314   
         C36       1.0000    0.57778   0.03338   0.44173   Biso      1.000     C          -0.158934           
         C37       1.0000    0.66471   0.76139   0.34593   Biso      1.000     C          -0.161633           
         C38       1.0000    0.97620   0.35290   0.40417   Biso      1.000     C          0.144964  
         C39       1.0000    0.96662   0.54440   0.77506   Biso      1.000     C          -0.157122           
         C40       1.0000    0.91784   0.06718   0.64719   Biso      1.000     C          0.11314600000000001           
         C41       1.0000    0.87433   0.17583   0.59444   Biso      1.000     C          0.086108  
         C42       1.0000    0.30327   0.02808   0.44347   Biso      1.000     C          0.37546199999999996           
         C43       1.0000    0.27799   0.98780   0.96327   Biso      1.000     C          -0.12321900000000001          
         C44       1.0000    0.21058   0.94130   0.62157   Biso      1.000     C          0.05294600000000001           
         C45       1.0000    0.81343   0.78873   0.74345   Biso      1.000     C          0.619686  
         C46       1.0000    0.00990   0.44780   0.29600   Biso      1.000     C          0.064208  
         C47       1.0000    0.45560   0.42222   0.10839   Biso      1.000     C          -0.159866           
         C48       1.0000    0.33529   0.09668   0.32074   Biso      1.000     C          -0.162982           
         C49       1.0000    0.73072   0.78942   0.28824   Biso      1.000     C          0.052496  
         C50       1.0000    0.66802   0.03127   0.44363   Biso      1.000     C          0.091753  
         C51       1.0000    0.21127   0.02470   0.07679   Biso      1.000     C          0.6173420000000001  
         C52       1.0000    0.43790   0.99010   0.96266   Biso      1.000     C          0.064841  
         C53       1.0000    0.03338   0.57778   0.89161   Biso      1.000     C          -0.159863           
         C54       1.0000    0.29019   0.01220   0.03673   Biso      1.000     C          -0.12321700000000001          
         C55       1.0000    0.54440   0.96662   0.55827   Biso      1.000     C          -0.158934           
         C56       1.0000    0.05870   0.26928   0.95491   Biso      1.000     C          0.053134  
         C57       1.0000    0.18657   0.97530   0.92321   Biso      1.000     C          0.6173420000000001  
         C58       1.0000    0.09668   0.33529   0.01260   Biso      1.000     C          -0.162083           
         C59       1.0000    0.93282   0.85066   0.98052   Biso      1.000     C          0.112278  
         C60       1.0000    0.82473   0.87573   0.29229   Biso      1.000     C          -0.13410999999999998          
         C61       1.0000    0.37670   0.02380   0.07084   Biso      1.000     C          0.14318   
         C62       1.0000    0.12567   0.30150   0.07223   Biso      1.000     C          0.085989  
         C63       1.0000    0.87573   0.82473   0.04104   Biso      1.000     C          -0.132324           
         C64       1.0000    0.44780   0.00990   0.03734   Biso      1.000     C          0.064842  
         C65       1.0000    0.17583   0.87433   0.73889   Biso      1.000     C          0.087085  
         C66       1.0000    0.96873   0.63675   0.77696   Biso      1.000     C          0.090883  
         C67       1.0000    0.42222   0.45560   0.22494   Biso      1.000     C          -0.157125           
         C68       1.0000    0.69673   0.72481   0.22320   Biso      1.000     C          0.375787  
         C69       1.0000    0.14934   0.08216   0.31386   Biso      1.000     C          0.11354600000000001           
         C70       1.0000    0.36325   0.33198   0.11029   Biso      1.000     C          0.092727  
         C71       1.0000    0.62330   0.64710   0.59583   Biso      1.000     C          0.144965  
         C72       1.0000    0.01220   0.29019   0.29661   Biso      1.000     C          -0.12490899999999999          
         C73       1.0000    0.70981   0.72201   0.62994   Biso      1.000     C          -0.12391700000000001          
         C74       1.0000    0.00000   0.41719   0.83333   Biso      1.000     C          0.37541599999999997           
         C75       1.0000    0.02380   0.37670   0.26250   Biso      1.000     C          0.14491300000000001           
         C76       1.0000    0.27519   0.97192   0.55653   Biso      1.000     C          0.37546199999999996           
         C77       1.0000    0.23861   0.90332   0.67926   Biso      1.000     C          -0.162982           
         C78       1.0000    0.98780   0.27799   0.37006   Biso      1.000     C          -0.123918           
         F1        1.0000    0.38856   0.04261   0.14097   Biso      1.000     F          -0.118496           
         F2        1.0000    0.02280   0.53106   0.26284   Biso      1.000     F          -0.09928  
         F3        1.0000    0.53106   0.02280   0.07050   Biso      1.000     F          -0.099442           
         F4        1.0000    0.34595   0.95739   0.85903   Biso      1.000     F          -0.118498           
         F5        1.0000    0.04261   0.38856   0.19237   Biso      1.000     F          -0.11881900000000001          
         F6        1.0000    0.65405   0.61144   0.80763   Biso      1.000     F          -0.118816           
         F7        1.0000    0.61144   0.65405   0.52570   Biso      1.000     F          -0.11882899999999999          
         F8        1.0000    0.95739   0.34595   0.47430   Biso      1.000     F          -0.118833           
         F9        1.0000    0.46894   0.49174   0.59617   Biso      1.000     F          -0.099099           
         F10       1.0000    0.49174   0.46894   0.73716   Biso      1.000     F          -0.09926900000000001          
         F11       1.0000    0.50826   0.97720   0.92950   Biso      1.000     F          -0.099442           
         F12       1.0000    0.97720   0.50826   0.40383   Biso      1.000     F          -0.099111           
         H1        1.0000    0.39920   0.10250   0.32197   Biso      1.000     H          0.136238  
         H2        1.0000    0.56000   0.05700   0.40177   Biso      1.000     H          0.136311  
         H3        1.0000    0.13000   0.02500   0.41217   Biso      1.000     H          0.136447  
         H4        1.0000    0.10250   0.39920   0.01137   Biso      1.000     H          0.13566199999999998           
         H5        1.0000    0.70980   0.05260   0.40377   Biso      1.000     H          0.11119000000000001           
         H6        1.0000    0.89500   0.87000   0.07883   Biso      1.000     H          0.136081  
         H7        1.0000    0.92240   0.00830   0.64530   Biso      1.000     H          0.098794  
         H8        1.0000    0.44000   0.49700   0.26490   Biso      1.000     H          0.13558900000000002           
         H9        1.0000    0.99170   0.91410   0.97863   Biso      1.000     H          0.09973   
         H10       1.0000    0.50300   0.94300   0.59823   Biso      1.000     H          0.13631   
         H11       1.0000    0.19360   0.84900   0.77793   Biso      1.000     H          0.096868  
         H12       1.0000    0.94740   0.65720   0.73710   Biso      1.000     H          0.11168499999999999           
         H13       1.0000    0.00830   0.92240   0.68803   Biso      1.000     H          0.09862699999999999           
         H14       1.0000    0.05260   0.70980   0.92957   Biso      1.000     H          0.111213  
         H15       1.0000    0.91410   0.99170   0.35470   Biso      1.000     H          0.09879500000000001           
         H16       1.0000    0.15100   0.34460   0.11127   Biso      1.000     H          0.097053  
         H17       1.0000    0.08590   0.07760   0.31197   Biso      1.000     H          0.098626  
         H18       1.0000    0.07760   0.08590   0.02137   Biso      1.000     H          0.099728  
         H19       1.0000    0.97500   0.10500   0.74550   Biso      1.000     H          0.13701300000000002           
         H20       1.0000    0.10500   0.97500   0.58783   Biso      1.000     H          0.136448  
         H21       1.0000    0.65540   0.80640   0.44460   Biso      1.000     H          0.096563  
         H22       1.0000    0.94300   0.50300   0.73510   Biso      1.000     H          0.13558900000000002           
         H23       1.0000    0.02500   0.13000   0.92117   Biso      1.000     H          0.136078  
         H24       1.0000    0.34460   0.15100   0.22207   Biso      1.000     H          0.096867  
         H25       1.0000    0.34280   0.29020   0.07043   Biso      1.000     H          0.11121099999999999           
         H26       1.0000    0.70330   0.60080   0.98863   Biso      1.000     H          0.135666  
         H27       1.0000    0.65720   0.94740   0.59623   Biso      1.000     H          0.11118900000000001           
         H28       1.0000    0.29670   0.89750   0.67803   Biso      1.000     H          0.136239  
         H29       1.0000    0.29020   0.34280   0.26290   Biso      1.000     H          0.11168499999999999           
         H30       1.0000    0.80640   0.65540   0.88873   Biso      1.000     H          0.097055  
         H31       1.0000    0.89750   0.29670   0.65530   Biso      1.000     H          0.136176  
         H32       1.0000    0.05700   0.56000   0.93157   Biso      1.000     H          0.136169  
         H33       1.0000    0.87000   0.89500   0.25450   Biso      1.000     H          0.137015  
         H34       1.0000    0.84900   0.19360   0.55540   Biso      1.000     H          0.096562  
         H35       1.0000    0.60080   0.70330   0.34470   Biso      1.000     H          0.136178  
         H36       1.0000    0.49700   0.44000   0.06843   Biso      1.000     H          0.136168  
         N1        1.0000    0.69702   0.00000   0.50000   Biso      1.000     N          -0.169904           
         N2        1.0000    0.63646   0.60936   0.10687   Biso      1.000     N          -0.39161399999999996          
         N3        1.0000    0.78995   0.90889   0.40959   Biso      1.000     N          -0.202471           
         N4        1.0000    0.88106   0.09111   0.59041   Biso      1.000     N          -0.20247300000000001          
         N5        1.0000    0.36354   0.97290   0.55979   Biso      1.000     N          -0.392433           
         N6        1.0000    0.30298   0.30298   0.16667   Biso      1.000     N          -0.17111600000000002          
         N7        1.0000    0.11894   0.21005   0.07626   Biso      1.000     N          -0.20341700000000001          
         N8        1.0000    0.09111   0.88106   0.74292   Biso      1.000     N          -0.204263           
         N9        1.0000    0.02710   0.39064   0.89313   Biso      1.000     N          -0.391615           
         N10       1.0000    0.90889   0.78995   0.92374   Biso      1.000     N          -0.203415           
         N11       1.0000    0.00000   0.69702   0.83333   Biso      1.000     N          -0.17111700000000002          
         N12       1.0000    0.00000   0.24089   0.83333   Biso      1.000     N          -0.374364           
         N13       1.0000    0.97290   0.36354   0.77354   Biso      1.000     N          -0.393074           
         N14       1.0000    0.75911   0.75911   0.16667   Biso      1.000     N          -0.374365           
         N15       1.0000    0.24089   0.00000   0.50000   Biso      1.000     N          -0.374702           
         N16       1.0000    0.60936   0.63646   0.22646   Biso      1.000     N          -0.393073           
         N17       1.0000    0.39064   0.02710   0.44021   Biso      1.000     N          -0.392432           
         N18       1.0000    0.21005   0.11894   0.25708   Biso      1.000     N          -0.204263           
         Ni1       1.0000    0.16482   0.16482   0.16667   Biso      1.000     Ni          0.694585  
         Ni2       1.0000    0.83518   0.00000   0.50000   Biso      1.000     Ni          0.692397  
         Ni3       1.0000    1.00000   0.83518   0.83333   Biso      1.000     Ni          0.694588  
         O1        1.0000    0.10880   0.23960   0.22853   Biso      1.000     O          -0.573603           
         O2        1.0000    0.89120   0.13080   0.43814   Biso      1.000     O          -0.572731           
         O3        1.0000    0.94867   0.12330   0.25522   Biso      1.000     O          -0.588551           
         O4        1.0000    0.23960   0.10880   0.10481   Biso      1.000     O          -0.5721470000000001           
         O5        1.0000    0.82537   0.87670   0.74478   Biso      1.000     O          -0.588547           
         O6        1.0000    0.76040   0.86920   0.56186   Biso      1.000     O          -0.5727300000000001           
         O7        1.0000    0.87670   0.82537   0.58855   Biso      1.000     O          -0.588174           
         O8        1.0000    0.17463   0.05133   0.92188   Biso      1.000     O          -0.587775           
         O9        1.0000    0.86920   0.76040   0.77147   Biso      1.000     O          -0.573601           
         O10       1.0000    0.13080   0.89120   0.89519   Biso      1.000     O          -0.572146           
         O11       1.0000    0.12330   0.94867   0.07812   Biso      1.000     O          -0.587777           
         O12       1.0000    0.05133   0.17463   0.41145   Biso      1.000     O          -0.588176 