
##########################################################################
#               Crystallographic Information Format file
#               Produced by PyCifRW module
#
#  This is a CIF file.  CIF has been adopted by the International
#  Union of Crystallography as the standard for data archiving and
#  transmission.
#
#  For information on this file format, follow the CIF links at
#  http://www.iucr.org
##########################################################################

data_image0

_cell_length_a                          15.673
_cell_length_b                          15.673
_cell_length_c                          18.532
_cell_angle_alpha                       90
_cell_angle_beta                        90
_cell_angle_gamma                       120
_symmetry_space_group_name_H-M          'P 1'
_symmetry_int_tables_number             1
loop_
  _symmetry_equiv_pos_as_xyz
         'x, y, z' 
loop_
  _atom_site_label
  _atom_site_occupancy
  _atom_site_fract_x
  _atom_site_fract_y
  _atom_site_fract_z
  _atom_site_thermal_displace_type
  _atom_site_B_iso_or_equiv
  _atom_site_type_symbol
  _atom_site_charge
         C1        1.0000    0.82150   0.12810   0.25997   Biso      1.000     C          0.071575  
         C2        1.0000    0.58620   0.00000   0.50000   Biso      1.000     C          0.38147800000000004           
         C3        1.0000    0.41380   0.41380   0.83333   Biso      1.000     C          0.38229   
         C4        1.0000    0.57510   0.53570   0.77510   Biso      1.000     C          -0.18504  
         C5        1.0000    0.62660   0.66370   0.88447   Biso      1.000     C          0.095782  
         C6        1.0000    0.76220   0.09840   0.31967   Biso      1.000     C          -0.17088699999999998          
         C7        1.0000    0.03720   0.82440   0.59090   Biso      1.000     C          0.600881  
         C8        1.0000    0.97990   0.71600   0.70193   Biso      1.000     C          -0.037623000000000004         
         C9        1.0000    0.43040   0.41290   0.37420   Biso      1.000     C          0.22132399999999997           
         C10       1.0000    0.36410   0.32710   0.40640   Biso      1.000     C          -0.27497699999999997          
         C11       1.0000    0.78850   0.06950   0.37947   Biso      1.000     C          0.048132  
         C12       1.0000    0.33630   0.96290   0.55113   Biso      1.000     C          0.09649500000000001           
         C13       1.0000    0.98250   0.56960   0.70753   Biso      1.000     C          0.220556  
         C14       1.0000    0.26390   0.28400   0.29807   Biso      1.000     C          -0.037975999999999996         
         C15       1.0000    0.06500   0.17050   0.01537   Biso      1.000     C          0.12081700000000001           
         C16       1.0000    0.03380   0.72210   0.22360   Biso      1.000     C          0.374391  
         C17       1.0000    0.03700   0.67290   0.59360   Biso      1.000     C          -0.275503           
         C18       1.0000    0.28100   0.21150   0.71280   Biso      1.000     C          0.047969  
         C19       1.0000    0.17560   0.21280   0.25757   Biso      1.000     C          0.597512  
         C20       1.0000    0.03710   0.37340   0.21780   Biso      1.000     C          0.09283200000000001           
         C21       1.0000    0.66380   0.90160   0.68033   Biso      1.000     C          -0.171678           
         C22       1.0000    0.71900   0.93050   0.62053   Biso      1.000     C          0.048581  
         C23       1.0000    0.69340   0.87190   0.74003   Biso      1.000     C          0.073567  
         C24       1.0000    0.89450   0.82950   0.98463   Biso      1.000     C          0.12304200000000001           
         C25       1.0000    0.41290   0.43040   0.29247   Biso      1.000     C          0.22010900000000003           
         C26       1.0000    0.01750   0.58710   0.62580   Biso      1.000     C          0.220994  
         C27       1.0000    0.21280   0.17560   0.40910   Biso      1.000     C          0.600838  
         C28       1.0000    0.17850   0.30660   0.07337   Biso      1.000     C          0.071039  
         C29       1.0000    0.09840   0.76220   0.34700   Biso      1.000     C          -0.170843           
         C30       1.0000    0.90160   0.66380   0.98633   Biso      1.000     C          -0.170827           
         C31       1.0000    0.93050   0.71900   0.04613   Biso      1.000     C          0.048174  
         C32       1.0000    0.28400   0.26390   0.36860   Biso      1.000     C          -0.03482  
         C33       1.0000    0.00000   0.58620   0.16667   Biso      1.000     C          0.38325   
         C34       1.0000    0.96300   0.63590   0.73973   Biso      1.000     C          -0.276046           
         C35       1.0000    0.06820   0.87590   0.28990   Biso      1.000     C          -0.12998900000000002          
         C36       1.0000    0.31170   0.27790   0.77640   Biso      1.000     C          0.374629  
         C37       1.0000    0.63590   0.96300   0.92693   Biso      1.000     C          -0.275981           
         C38       1.0000    0.48900   0.00000   0.50000   Biso      1.000     C          0.041072000000000004          
         C39       1.0000    0.00000   0.48900   0.16667   Biso      1.000     C          0.038331  
         C40       1.0000    0.10550   0.93500   0.34870   Biso      1.000     C          0.12225799999999999           
         C41       1.0000    0.23780   0.33620   0.01367   Biso      1.000     C          -0.170131           
         C42       1.0000    0.32710   0.36410   0.26027   Biso      1.000     C          -0.276717           
         C43       1.0000    0.71600   0.97990   0.96473   Biso      1.000     C          -0.035805000000000003         
         C44       1.0000    0.82950   0.89450   0.68203   Biso      1.000     C          0.122242  
         C45       1.0000    0.96620   0.68830   0.10973   Biso      1.000     C          0.373651  
         C46       1.0000    0.93180   0.80770   0.04343   Biso      1.000     C          -0.130322           
         C47       1.0000    0.42490   0.96060   0.55823   Biso      1.000     C          -0.184527           
         C48       1.0000    0.33620   0.23780   0.65300   Biso      1.000     C          -0.170909           
         C49       1.0000    0.82440   0.03720   0.07577   Biso      1.000     C          0.59742   
         C50       1.0000    0.68830   0.96620   0.55693   Biso      1.000     C          0.374614  
         C51       1.0000    0.12410   0.19230   0.95657   Biso      1.000     C          -0.130183           
         C52       1.0000    0.37340   0.03710   0.44887   Biso      1.000     C          0.096614  
         C53       1.0000    0.56960   0.98250   0.95913   Biso      1.000     C          0.22187300000000001           
         C54       1.0000    0.72210   0.03380   0.44307   Biso      1.000     C          0.374474  
         C55       1.0000    0.73610   0.02010   0.03527   Biso      1.000     C          -0.036782           
         C56       1.0000    0.53570   0.57510   0.89157   Biso      1.000     C          -0.184006           
         C57       1.0000    0.78720   0.96280   0.92423   Biso      1.000     C          0.6022430000000001  
         C58       1.0000    0.27790   0.31170   0.89027   Biso      1.000     C          0.373742  
         C59       1.0000    0.03940   0.46430   0.22490   Biso      1.000     C          -0.187497           
         C60       1.0000    0.87190   0.69340   0.92663   Biso      1.000     C          0.07284600000000001           
         C61       1.0000    0.51100   0.51100   0.83333   Biso      1.000     C          0.041471  
         C62       1.0000    0.96060   0.42490   0.10843   Biso      1.000     C          -0.18646600000000002          
         C63       1.0000    0.12810   0.82150   0.40670   Biso      1.000     C          0.072672  
         C64       1.0000    0.87590   0.06820   0.37677   Biso      1.000     C          -0.13053299999999998          
         C65       1.0000    0.30660   0.17850   0.59330   Biso      1.000     C          0.072848  
         C66       1.0000    0.93500   0.10550   0.31797   Biso      1.000     C          0.119913  
         C67       1.0000    0.96280   0.78720   0.74243   Biso      1.000     C          0.602194  
         C68       1.0000    0.96290   0.33630   0.11553   Biso      1.000     C          0.092815  
         C69       1.0000    0.46430   0.03940   0.44177   Biso      1.000     C          -0.184553           
         C70       1.0000    0.17050   0.06500   0.65130   Biso      1.000     C          0.122367  
         C71       1.0000    0.58710   0.01750   0.04087   Biso      1.000     C          0.22107100000000002           
         C72       1.0000    0.80770   0.93180   0.62323   Biso      1.000     C          -0.130801           
         C73       1.0000    0.06950   0.78850   0.28720   Biso      1.000     C          0.048591  
         C74       1.0000    0.21150   0.28100   0.95387   Biso      1.000     C          0.047139999999999994          
         C75       1.0000    0.19230   0.12410   0.71010   Biso      1.000     C          -0.130107           
         C76       1.0000    0.67290   0.03700   0.07307   Biso      1.000     C          -0.27712  
         C77       1.0000    0.66370   0.62660   0.78220   Biso      1.000     C          0.09568   
         C78       1.0000    0.02010   0.73610   0.63140   Biso      1.000     C          -0.03544  
         H1        1.0000    0.47480   0.04390   0.05327   Biso      1.000     H          0.33171100000000003           
         H2        1.0000    0.64220   0.70870   0.92187   Biso      1.000     H          0.09175599999999999           
         H3        1.0000    0.14790   0.10580   0.74820   Biso      1.000     H          0.13692100000000001           
         H4        1.0000    0.04390   0.47480   0.61340   Biso      1.000     H          0.331554  
         H5        1.0000    0.00260   0.11480   0.01337   Biso      1.000     H          0.10578199999999999           
         H6        1.0000    0.31240   0.37380   0.21347   Biso      1.000     H          0.135252  
         H7        1.0000    0.19950   0.34530   0.11477   Biso      1.000     H          0.09893400000000001           
         H8        1.0000    0.70290   0.09830   0.31877   Biso      1.000     H          0.12250699999999999           
         H9        1.0000    0.89420   0.04210   0.41487   Biso      1.000     H          0.137572  
         H10       1.0000    0.29710   0.39540   0.01457   Biso      1.000     H          0.122359  
         H11       1.0000    0.43920   0.93480   0.59873   Biso      1.000     H          0.141325  
         H12       1.0000    0.88780   0.88520   0.98663   Biso      1.000     H          0.104379  
         H13       1.0000    0.85420   0.65470   0.88523   Biso      1.000     H          0.097713  
         H14       1.0000    0.04210   0.89420   0.25180   Biso      1.000     H          0.137409  
         H15       1.0000    0.09830   0.70290   0.34790   Biso      1.000     H          0.12164200000000001           
         H16       1.0000    0.56910   0.52520   0.38660   Biso      1.000     H          0.331759  
         H17       1.0000    0.37380   0.31240   0.45320   Biso      1.000     H          0.13481400000000002           
         H18       1.0000    0.34530   0.19950   0.55190   Biso      1.000     H          0.097945  
         H19       1.0000    0.06100   0.52770   0.54930   Biso      1.000     H          0.325075  
         H20       1.0000    0.95790   0.85210   0.08153   Biso      1.000     H          0.137562  
         H21       1.0000    0.11220   0.99740   0.34670   Biso      1.000     H          0.104815  
         H22       1.0000    0.39540   0.29710   0.65210   Biso      1.000     H          0.121406  
         H23       1.0000    0.93480   0.43920   0.06793   Biso      1.000     H          0.139603  
         H24       1.0000    0.56080   0.49560   0.73460   Biso      1.000     H          0.14169400000000001           
         H25       1.0000    0.88520   0.88780   0.68003   Biso      1.000     H          0.105024  
         H26       1.0000    0.11480   0.00260   0.65330   Biso      1.000     H          0.10484600000000001           
         H27       1.0000    0.52520   0.56910   0.28007   Biso      1.000     H          0.330924  
         H28       1.0000    0.29130   0.93350   0.58853   Biso      1.000     H          0.091396  
         H29       1.0000    0.06650   0.35780   0.25520   Biso      1.000     H          0.088702  
         H30       1.0000    0.80050   0.14580   0.21857   Biso      1.000     H          0.09892100000000001           
         H31       1.0000    0.35780   0.06650   0.41147   Biso      1.000     H          0.091441  
         H32       1.0000    0.46670   0.93900   0.88263   Biso      1.000     H          0.325531  
         H33       1.0000    0.49560   0.56080   0.93207   Biso      1.000     H          0.141312  
         H34       1.0000    0.52770   0.06100   0.11737   Biso      1.000     H          0.32550100000000004           
         H35       1.0000    0.68760   0.06140   0.11987   Biso      1.000     H          0.134866  
         H36       1.0000    0.99740   0.11220   0.31997   Biso      1.000     H          0.106398  
         H37       1.0000    0.53330   0.47230   0.45070   Biso      1.000     H          0.324937  
         H38       1.0000    0.65470   0.85420   0.78143   Biso      1.000     H          0.097755  
         H39       1.0000    0.93860   0.62620   0.78653   Biso      1.000     H          0.13536700000000002           
         H40       1.0000    0.50440   0.06520   0.40127   Biso      1.000     H          0.141352  
         H41       1.0000    0.90170   0.60460   0.98543   Biso      1.000     H          0.12193299999999999           
         H42       1.0000    0.43090   0.95610   0.94673   Biso      1.000     H          0.331947  
         H43       1.0000    0.95610   0.43090   0.71993   Biso      1.000     H          0.330948  
         H44       1.0000    0.60460   0.90170   0.68123   Biso      1.000     H          0.12184500000000001           
         H45       1.0000    0.70870   0.64220   0.74480   Biso      1.000     H          0.091562  
         H46       1.0000    0.62620   0.93860   0.88013   Biso      1.000     H          0.13505599999999998           
         H47       1.0000    0.47230   0.53330   0.21597   Biso      1.000     H          0.32556399999999996           
         H48       1.0000    0.06140   0.68760   0.54680   Biso      1.000     H          0.134744  
         H49       1.0000    0.14580   0.80050   0.44810   Biso      1.000     H          0.097889  
         H50       1.0000    0.85210   0.95790   0.58513   Biso      1.000     H          0.136958  
         H51       1.0000    0.93350   0.29130   0.07813   Biso      1.000     H          0.08885   
         H52       1.0000    0.93900   0.46670   0.78403   Biso      1.000     H          0.325725  
         H53       1.0000    0.06520   0.50440   0.26540   Biso      1.000     H          0.139986  
         H54       1.0000    0.10580   0.14790   0.91847   Biso      1.000     H          0.13768699999999998           
         N1        1.0000    0.63900   0.03510   0.44157   Biso      1.000     N          -0.390488           
         N2        1.0000    0.48270   0.96300   0.92733   Biso      1.000     N          -0.713774           
         N3        1.0000    0.39610   0.36100   0.77490   Biso      1.000     N          -0.39117199999999996          
         N4        1.0000    0.03510   0.63900   0.22510   Biso      1.000     N          -0.390784           
         N5        1.0000    0.86790   0.77820   0.92653   Biso      1.000     N          -0.191143           
         N6        1.0000    0.30890   0.00000   0.50000   Biso      1.000     N          -0.16201400000000002          
         N7        1.0000    0.51730   0.48030   0.40600   Biso      1.000     N          -0.712962           
         N8        1.0000    0.75240   0.00000   0.50000   Biso      1.000     N          -0.395744           
         N9        1.0000    0.03700   0.51970   0.59400   Biso      1.000     N          -0.713175           
         N10       1.0000    0.60390   0.96490   0.55843   Biso      1.000     N          -0.390459           
         N11       1.0000    0.13210   0.91030   0.40680   Biso      1.000     N          -0.19126500000000002          
         N12       1.0000    0.36100   0.39610   0.89177   Biso      1.000     N          -0.39056399999999997          
         N13       1.0000    0.22180   0.08970   0.59320   Biso      1.000     N          -0.190986           
         N14       1.0000    0.00000   0.75240   0.16667   Biso      1.000     N          -0.396127           
         N15       1.0000    0.69110   0.69110   0.83333   Biso      1.000     N          -0.161475           
         N16       1.0000    0.77820   0.86790   0.74013   Biso      1.000     N          -0.191132           
         N17       1.0000    0.91030   0.13210   0.25987   Biso      1.000     N          -0.168285           
         N18       1.0000    0.96490   0.60390   0.10823   Biso      1.000     N          -0.39014699999999997          
         N19       1.0000    0.48030   0.51730   0.26067   Biso      1.000     N          -0.713989           
         N20       1.0000    0.96300   0.48270   0.73933   Biso      1.000     N          -0.712906           
         N21       1.0000    0.24760   0.24760   0.83333   Biso      1.000     N          -0.39518200000000003          
         N22       1.0000    0.08970   0.22180   0.07347   Biso      1.000     N          -0.168009           
         N23       1.0000    0.51970   0.03700   0.07267   Biso      1.000     N          -0.715067           
         N24       1.0000    0.00000   0.30890   0.16667   Biso      1.000     N          -0.166163           
         Ni1       1.0000    0.00000   0.17763   0.16667   Biso      1.000     Ni          0.589196  
         Ni2       1.0000    0.17763   0.00000   0.50000   Biso      1.000     Ni          0.672867  
         Ni3       1.0000    0.82237   0.82237   0.83333   Biso      1.000     Ni          0.673474  
         O1        1.0000    0.87450   0.11970   0.10347   Biso      1.000     O          -0.550833           
         O2        1.0000    0.15540   0.12520   0.25017   Biso      1.000     O          -0.613002           
         O3        1.0000    0.12550   0.24520   0.22987   Biso      1.000     O          -0.550672           
         O4        1.0000    0.96980   0.84460   0.58350   Biso      1.000     O          -0.613583           
         O5        1.0000    0.75480   0.88030   0.89653   Biso      1.000     O          -0.584037           
         O6        1.0000    0.12520   0.15540   0.41650   Biso      1.000     O          -0.614683           
         O7        1.0000    0.88030   0.75480   0.77013   Biso      1.000     O          -0.583859           
         O8        1.0000    0.24520   0.12550   0.43680   Biso      1.000     O          -0.583327           
         O9        1.0000    0.84460   0.96980   0.08317   Biso      1.000     O          -0.612875           
         O10       1.0000    0.11970   0.87450   0.56320   Biso      1.000     O          -0.583393           
         O11       1.0000    0.03020   0.87480   0.74983   Biso      1.000     O          -0.613987           
         O12       1.0000    0.87480   0.03020   0.91683   Biso      1.000     O          -0.615031 