
##########################################################################
#               Crystallographic Information Format file
#               Produced by PyCifRW module
#
#  This is a CIF file.  CIF has been adopted by the International
#  Union of Crystallography as the standard for data archiving and
#  transmission.
#
#  For information on this file format, follow the CIF links at
#  http://www.iucr.org
##########################################################################

data_image0

_cell_length_a                          15.698
_cell_length_b                          15.698
_cell_length_c                          18.557
_cell_angle_alpha                       90
_cell_angle_beta                        90
_cell_angle_gamma                       120
_symmetry_space_group_name_H-M          'P 1'
_symmetry_int_tables_number             1
loop_
  _symmetry_equiv_pos_as_xyz
         'x, y, z' 
loop_
  _atom_site_label
  _atom_site_occupancy
  _atom_site_fract_x
  _atom_site_fract_y
  _atom_site_fract_z
  _atom_site_thermal_displace_type
  _atom_site_B_iso_or_equiv
  _atom_site_type_symbol
  _atom_site_charge
         C1        1.0000    0.41840   0.97820   0.96537   Biso      1.000     C          -0.23006999999999997          
         C2        1.0000    0.66250   0.03800   0.44516   Biso      1.000     C          0.093623  
         C3        1.0000    0.03330   0.31070   0.88857   Biso      1.000     C          0.380529  
         C4        1.0000    0.93160   0.12380   0.71258   Biso      1.000     C          -0.14054  
         C5        1.0000    0.23870   0.90010   0.68086   Biso      1.000     C          -0.165413           
         C6        1.0000    0.53750   0.96100   0.55670   Biso      1.000     C          -0.159994           
         C7        1.0000    0.01830   0.28340   0.29853   Biso      1.000     C          -0.139673           
         C8        1.0000    0.71660   0.73490   0.63186   Biso      1.000     C          -0.141719           
         C9        1.0000    0.82390   0.69340   0.92745   Biso      1.000     C          0.087719  
         C10       1.0000    0.10220   0.16740   0.01426   Biso      1.000     C          0.11177100000000001           
         C11       1.0000    0.21030   0.03640   0.07714   Biso      1.000     C          0.6229    
         C12       1.0000    0.26510   0.98170   0.96520   Biso      1.000     C          -0.140283           
         C13       1.0000    0.33300   0.96460   0.93207   Biso      1.000     C          0.25342600000000004           
         C14       1.0000    0.02180   0.44020   0.29870   Biso      1.000     C          -0.231595           
         C15       1.0000    0.96200   0.62450   0.77849   Biso      1.000     C          0.092828  
         C16       1.0000    0.98170   0.26510   0.36814   Biso      1.000     C          -0.141713           
         C17       1.0000    0.21140   0.93140   0.61994   Biso      1.000     C          0.045319  
         C18       1.0000    0.13050   0.30660   0.07255   Biso      1.000     C          0.087719  
         C19       1.0000    0.03900   0.57650   0.89003   Biso      1.000     C          -0.159413           
         C20       1.0000    0.93480   0.83260   0.98574   Biso      1.000     C          0.11177000000000001           
         C21       1.0000    0.89780   0.06520   0.65240   Biso      1.000     C          0.111398  
         C22       1.0000    0.30660   0.13050   0.26078   Biso      1.000     C          0.08868200000000001           
         C23       1.0000    0.90010   0.23870   0.65247   Biso      1.000     C          -0.165523           
         C24       1.0000    0.06840   0.19220   0.95408   Biso      1.000     C          -0.144025           
         C25       1.0000    0.37550   0.33750   0.11183   Biso      1.000     C          0.09418   
         C26       1.0000    0.31070   0.03330   0.44476   Biso      1.000     C          0.381017  
         C27       1.0000    0.12380   0.93160   0.62075   Biso      1.000     C          -0.142678           
         C28       1.0000    0.57650   0.03900   0.44330   Biso      1.000     C          -0.15998199999999999          
         C29       1.0000    0.09990   0.33860   0.01419   Biso      1.000     C          -0.16604000000000002          
         C30       1.0000    0.06520   0.89780   0.68093   Biso      1.000     C          0.114294  
         C31       1.0000    0.42350   0.46250   0.22337   Biso      1.000     C          -0.15945299999999998          
         C32       1.0000    0.00000   0.51180   0.83333   Biso      1.000     C          0.055223  
         C33       1.0000    0.96670   0.27740   0.77809   Biso      1.000     C          0.37984   
         C34       1.0000    0.66700   0.63160   0.73460   Biso      1.000     C          0.25346199999999997           
         C35       1.0000    0.17390   0.96360   0.92286   Biso      1.000     C          0.622904  
         C36       1.0000    0.03800   0.66250   0.88817   Biso      1.000     C          0.094194  
         C37       1.0000    0.96100   0.53750   0.77663   Biso      1.000     C          -0.159439           
         C38       1.0000    0.51180   0.00000   0.50000   Biso      1.000     C          0.055086  
         C39       1.0000    0.87620   0.80780   0.04592   Biso      1.000     C          -0.144028           
         C40       1.0000    0.00000   0.41690   0.83333   Biso      1.000     C          0.378395  
         C41       1.0000    0.27740   0.96670   0.55524   Biso      1.000     C          0.381017  
         C42       1.0000    0.33750   0.37550   0.22151   Biso      1.000     C          0.09284400000000001           
         C43       1.0000    0.17610   0.86950   0.73922   Biso      1.000     C          0.088688  
         C44       1.0000    0.19220   0.06840   0.37925   Biso      1.000     C          -0.142684           
         C45       1.0000    0.03540   0.36840   0.26540   Biso      1.000     C          0.253469  
         C46       1.0000    0.82610   0.78970   0.74381   Biso      1.000     C          0.623537  
         C47       1.0000    0.96460   0.33300   0.40127   Biso      1.000     C          0.254457  
         C48       1.0000    0.41690   0.00000   0.50000   Biso      1.000     C          0.377726  
         C49       1.0000    0.76130   0.66140   0.98581   Biso      1.000     C          -0.166044           
         C50       1.0000    0.72000   0.78860   0.28661   Biso      1.000     C          0.046548  
         C51       1.0000    0.06860   0.28000   0.95327   Biso      1.000     C          0.045779  
         C52       1.0000    0.16740   0.10220   0.31907   Biso      1.000     C          0.114294  
         C53       1.0000    0.03640   0.21030   0.25619   Biso      1.000     C          0.6235350000000001  
         C54       1.0000    0.55980   0.58160   0.63203   Biso      1.000     C          -0.230884           
         C55       1.0000    0.86950   0.17610   0.59411   Biso      1.000     C          0.086765  
         C56       1.0000    0.44020   0.02180   0.03463   Biso      1.000     C          -0.230069           
         C57       1.0000    0.58160   0.55980   0.70130   Biso      1.000     C          -0.2316   
         C58       1.0000    0.46250   0.42350   0.10997   Biso      1.000     C          -0.159395           
         C59       1.0000    0.33860   0.09990   0.31914   Biso      1.000     C          -0.165406           
         C60       1.0000    0.69340   0.82390   0.40589   Biso      1.000     C          0.08676   
         C61       1.0000    0.73490   0.71660   0.70147   Biso      1.000     C          -0.13966900000000002          
         C62       1.0000    0.68930   0.72260   0.22191   Biso      1.000     C          0.37984   
         C63       1.0000    0.48820   0.48820   0.16667   Biso      1.000     C          0.055227  
         C64       1.0000    0.36840   0.03540   0.06793   Biso      1.000     C          0.253417  
         C65       1.0000    0.78860   0.72000   0.04673   Biso      1.000     C          0.045778  
         C66       1.0000    0.63160   0.66700   0.59873   Biso      1.000     C          0.254452  
         C67       1.0000    0.83260   0.93480   0.34760   Biso      1.000     C          0.111391  
         C68       1.0000    0.97820   0.41840   0.36797   Biso      1.000     C          -0.230879           
         C69       1.0000    0.62450   0.96200   0.55484   Biso      1.000     C          0.093636  
         C70       1.0000    0.66140   0.76130   0.34753   Biso      1.000     C          -0.165518           
         C71       1.0000    0.96360   0.17390   0.41048   Biso      1.000     C          0.62305   
         C72       1.0000    0.80780   0.87620   0.28742   Biso      1.000     C          -0.14053  
         C73       1.0000    0.58310   0.58310   0.16667   Biso      1.000     C          0.378398  
         C74       1.0000    0.93140   0.21140   0.71339   Biso      1.000     C          0.046557999999999995          
         C75       1.0000    0.72260   0.68930   0.11143   Biso      1.000     C          0.380527  
         C76       1.0000    0.28340   0.01830   0.03480   Biso      1.000     C          -0.14027  
         C77       1.0000    0.28000   0.06860   0.38006   Biso      1.000     C          0.045323  
         C78       1.0000    0.78970   0.82610   0.58952   Biso      1.000     C          0.62305   
         F1        1.0000    0.39210   0.06580   0.13453   Biso      1.000     F          -0.133943           
         F2        1.0000    0.60790   0.67370   0.53213   Biso      1.000     F          -0.134046           
         F3        1.0000    0.67370   0.60790   0.80120   Biso      1.000     F          -0.133704           
         F4        1.0000    0.06580   0.39210   0.19880   Biso      1.000     F          -0.133703           
         F5        1.0000    0.93420   0.32630   0.46787   Biso      1.000     F          -0.134042           
         F6        1.0000    0.32630   0.93420   0.86547   Biso      1.000     F          -0.13394  
         H1        1.0000    0.65440   0.80500   0.44707   Biso      1.000     H          0.092777  
         H2        1.0000    0.64080   0.93510   0.59350   Biso      1.000     H          0.11014600000000001           
         H3        1.0000    0.35920   0.29430   0.07317   Biso      1.000     H          0.109759  
         H4        1.0000    0.99480   0.89110   0.98627   Biso      1.000     H          0.10562   
         H5        1.0000    0.15060   0.34560   0.11373   Biso      1.000     H          0.092923  
         H6        1.0000    0.10370   0.10890   0.01373   Biso      1.000     H          0.105621  
         H7        1.0000    0.04070   0.50010   0.27640   Biso      1.000     H          0.142876  
         H8        1.0000    0.93510   0.64080   0.73983   Biso      1.000     H          0.110605  
         H9        1.0000    0.70230   0.60200   0.98427   Biso      1.000     H          0.132048  
         H10       1.0000    0.50440   0.43850   0.07067   Biso      1.000     H          0.132551  
         H11       1.0000    0.93410   0.49560   0.73733   Biso      1.000     H          0.132943  
         H12       1.0000    0.95930   0.45940   0.39027   Biso      1.000     H          0.142491  
         H13       1.0000    0.29770   0.89970   0.68240   Biso      1.000     H          0.13208   
         H14       1.0000    0.04570   0.15030   0.91453   Biso      1.000     H          0.14155   
         H15       1.0000    0.10030   0.39800   0.01573   Biso      1.000     H          0.132049  
         H16       1.0000    0.60200   0.70230   0.34907   Biso      1.000     H          0.131622  
         H17       1.0000    0.80500   0.65440   0.88627   Biso      1.000     H          0.092923  
         H18       1.0000    0.49560   0.93410   0.59600   Biso      1.000     H          0.13326   
         H19       1.0000    0.06590   0.56150   0.92933   Biso      1.000     H          0.132548  
         H20       1.0000    0.10460   0.95430   0.58120   Biso      1.000     H          0.139775  
         H21       1.0000    0.49990   0.54060   0.60973   Biso      1.000     H          0.14246199999999998           
         H22       1.0000    0.95430   0.10460   0.75213   Biso      1.000     H          0.138736  
         H23       1.0000    0.39800   0.10030   0.31760   Biso      1.000     H          0.13208   
         H24       1.0000    0.54060   0.49990   0.72360   Biso      1.000     H          0.14285699999999998           
         H25       1.0000    0.43850   0.50440   0.26267   Biso      1.000     H          0.132947  
         H26       1.0000    0.10890   0.10370   0.31960   Biso      1.000     H          0.104375  
         H27       1.0000    0.06490   0.70570   0.92683   Biso      1.000     H          0.10975499999999999           
         H28       1.0000    0.89970   0.29770   0.65093   Biso      1.000     H          0.131624  
         H29       1.0000    0.89540   0.84970   0.08547   Biso      1.000     H          0.141547  
         H30       1.0000    0.34560   0.15060   0.21960   Biso      1.000     H          0.091839  
         H31       1.0000    0.50010   0.04070   0.05693   Biso      1.000     H          0.141925  
         H32       1.0000    0.89630   0.00520   0.65293   Biso      1.000     H          0.10550899999999999           
         H33       1.0000    0.00520   0.89630   0.68040   Biso      1.000     H          0.104376  
         H34       1.0000    0.70570   0.06490   0.40650   Biso      1.000     H          0.110144  
         H35       1.0000    0.89110   0.99480   0.34707   Biso      1.000     H          0.10550799999999999           
         H36       1.0000    0.45940   0.95930   0.94307   Biso      1.000     H          0.14193499999999998           
         H37       1.0000    0.56150   0.06590   0.40400   Biso      1.000     H          0.133259  
         H38       1.0000    0.19500   0.84940   0.78040   Biso      1.000     H          0.091839  
         H39       1.0000    0.84940   0.19500   0.55293   Biso      1.000     H          0.092777  
         H40       1.0000    0.15030   0.04570   0.41880   Biso      1.000     H          0.139776  
         H41       1.0000    0.84970   0.89540   0.24787   Biso      1.000     H          0.138733  
         H42       1.0000    0.29430   0.35920   0.26017   Biso      1.000     H          0.110605  
         N1        1.0000    0.13301   0.22295   0.07351   Biso      1.000     N          -0.203175           
         N2        1.0000    0.03504   0.39548   0.89153   Biso      1.000     N          -0.395194           
         N3        1.0000    0.24760   0.00000   0.50000   Biso      1.000     N          -0.38011500000000004          
         N4        1.0000    0.60452   0.63956   0.22487   Biso      1.000     N          -0.395574           
         N5        1.0000    0.75240   0.75240   0.16667   Biso      1.000     N          -0.379524           
         N6        1.0000    0.22295   0.13301   0.25982   Biso      1.000     N          -0.20430299999999998          
         N7        1.0000    0.63956   0.60452   0.10847   Biso      1.000     N          -0.395194           
         N8        1.0000    0.68810   0.00000   0.50000   Biso      1.000     N          -0.17468599999999998          
         N9        1.0000    0.00000   0.24760   0.83333   Biso      1.000     N          -0.379525           
         N10       1.0000    0.36044   0.96496   0.55820   Biso      1.000     N          -0.395034           
         N11       1.0000    0.39548   0.03504   0.44180   Biso      1.000     N          -0.39503499999999997          
         N12       1.0000    0.86699   0.08994   0.59315   Biso      1.000     N          -0.202122           
         N13       1.0000    0.31190   0.31190   0.16667   Biso      1.000     N          -0.175044           
         N14       1.0000    0.91006   0.77705   0.92649   Biso      1.000     N          -0.203173           
         N15       1.0000    0.77705   0.91006   0.40685   Biso      1.000     N          -0.202121           
         N16       1.0000    0.00000   0.68810   0.83333   Biso      1.000     N          -0.175044           
         N17       1.0000    0.08994   0.86699   0.74018   Biso      1.000     N          -0.204301           
         N18       1.0000    0.96496   0.36044   0.77513   Biso      1.000     N          -0.395573           
         Ni1       1.0000    0.82207   0.00000   0.50000   Biso      1.000     Ni          0.701688  
         Ni2       1.0000    0.17793   0.17793   0.16667   Biso      1.000     Ni          0.703148  
         Ni3       1.0000    0.00000   0.82207   0.83333   Biso      1.000     Ni          0.703137  
         O1        1.0000    0.15570   0.03010   0.91847   Biso      1.000     O          -0.578963           
         O2        1.0000    0.87646   0.75597   0.76961   Biso      1.000     O          -0.5925050000000001           
         O3        1.0000    0.75597   0.87646   0.56372   Biso      1.000     O          -0.591743           
         O4        1.0000    0.24403   0.12049   0.10294   Biso      1.000     O          -0.592381           
         O5        1.0000    0.84430   0.87440   0.74820   Biso      1.000     O          -0.579597           
         O6        1.0000    0.12354   0.87951   0.89706   Biso      1.000     O          -0.592382           
         O7        1.0000    0.03010   0.15570   0.41487   Biso      1.000     O          -0.5790390000000001           
         O8        1.0000    0.12560   0.96990   0.08153   Biso      1.000     O          -0.57896  
         O9        1.0000    0.87440   0.84430   0.58513   Biso      1.000     O          -0.57904  
         O10       1.0000    0.12049   0.24403   0.23039   Biso      1.000     O          -0.592504           
         O11       1.0000    0.87951   0.12354   0.43628   Biso      1.000     O          -0.591742           
         O12       1.0000    0.96990   0.12560   0.25180   Biso      1.000     O          -0.5795939999999999 