
##########################################################################
#               Crystallographic Information Format file
#               Produced by PyCifRW module
#
#  This is a CIF file.  CIF has been adopted by the International
#  Union of Crystallography as the standard for data archiving and
#  transmission.
#
#  For information on this file format, follow the CIF links at
#  http://www.iucr.org
##########################################################################

data_image0

_cell_length_a                          15.688
_cell_length_b                          15.688
_cell_length_c                          18.678
_cell_angle_alpha                       90
_cell_angle_beta                        90
_cell_angle_gamma                       120
_symmetry_space_group_name_H-M          'P 1'
_symmetry_int_tables_number             1
loop_
  _symmetry_equiv_pos_as_xyz
         'x, y, z' 
loop_
  _atom_site_label
  _atom_site_occupancy
  _atom_site_fract_x
  _atom_site_fract_y
  _atom_site_fract_z
  _atom_site_thermal_displace_type
  _atom_site_B_iso_or_equiv
  _atom_site_type_symbol
  _atom_site_charge
         C1        1.0000    0.96070   0.53670   0.22397   Biso      1.000     C          -0.166501           
         C2        1.0000    0.06430   0.89930   0.31796   Biso      1.000     C          0.111226  
         C3        1.0000    0.37310   0.33720   0.88713   Biso      1.000     C          0.086215  
         C4        1.0000    0.19060   0.06770   0.62180   Biso      1.000     C          -0.134143           
         C5        1.0000    0.53670   0.96070   0.44270   Biso      1.000     C          -0.16583  
         C6        1.0000    0.93460   0.21180   0.28771   Biso      1.000     C          0.050714999999999996          
         C7        1.0000    0.56410   0.58030   0.37083   Biso      1.000     C          0.161904  
         C8        1.0000    0.93570   0.83500   0.01537   Biso      1.000     C          0.110784  
         C9        1.0000    0.02170   0.28580   0.70137   Biso      1.000     C          -0.022295           
         C10       1.0000    0.26410   0.97830   0.03470   Biso      1.000     C          -0.019194           
         C11       1.0000    0.66280   0.03590   0.55380   Biso      1.000     C          0.091068  
         C12       1.0000    0.17540   0.96420   0.07700   Biso      1.000     C          0.602485  
         C13       1.0000    0.21120   0.03580   0.92300   Biso      1.000     C          0.597553  
         C14       1.0000    0.57600   0.03930   0.55730   Biso      1.000     C          -0.165863           
         C15       1.0000    0.46330   0.42400   0.89063   Biso      1.000     C          -0.166351           
         C16       1.0000    0.97830   0.26410   0.63197   Biso      1.000     C          -0.020397           
         C17       1.0000    0.03590   0.66280   0.11287   Biso      1.000     C          0.090267  
         C18       1.0000    0.01620   0.43590   0.70417   Biso      1.000     C          0.162021  
         C19       1.0000    0.10070   0.16500   0.98463   Biso      1.000     C          0.108992  
         C20       1.0000    0.72370   0.69100   0.88958   Biso      1.000     C          0.374017  
         C21       1.0000    0.96410   0.62690   0.22047   Biso      1.000     C          0.092189  
         C22       1.0000    0.82380   0.69580   0.07293   Biso      1.000     C          0.087391  
         C23       1.0000    0.98380   0.41970   0.62917   Biso      1.000     C          0.162945  
         C24       1.0000    0.96420   0.17540   0.58967   Biso      1.000     C          0.6021449999999999  
         C25       1.0000    0.33630   0.09650   0.68078   Biso      1.000     C          -0.16530899999999998          
         C26       1.0000    0.33720   0.37310   0.77953   Biso      1.000     C          0.088054  
         C27       1.0000    0.17620   0.87200   0.26040   Biso      1.000     C          0.085506  
         C28       1.0000    0.87710   0.80940   0.95513   Biso      1.000     C          -0.133446           
         C29       1.0000    0.28580   0.02170   0.96530   Biso      1.000     C          -0.020269           
         C30       1.0000    0.30900   0.03270   0.55625   Biso      1.000     C          0.37492   
         C31       1.0000    0.00000   0.41610   0.16667   Biso      1.000     C          0.374104  
         C32       1.0000    0.62690   0.96410   0.44620   Biso      1.000     C          0.09114900000000001           
         C33       1.0000    0.51030   0.00000   0.50000   Biso      1.000     C          0.05176   
         C34       1.0000    0.27720   0.06540   0.62104   Biso      1.000     C          0.05122   
         C35       1.0000    0.66370   0.76020   0.65255   Biso      1.000     C          -0.16523  
         C36       1.0000    0.16500   0.10070   0.68204   Biso      1.000     C          0.108598  
         C37       1.0000    0.78880   0.82460   0.41033   Biso      1.000     C          0.602744  
         C38       1.0000    0.69100   0.72370   0.77708   Biso      1.000     C          0.372595  
         C39       1.0000    0.21180   0.93460   0.37896   Biso      1.000     C          0.051495000000000006          
         C40       1.0000    0.33180   0.96030   0.07200   Biso      1.000     C          -0.253363           
         C41       1.0000    0.42400   0.46330   0.77603   Biso      1.000     C          -0.16913499999999998          
         C42       1.0000    0.82460   0.78880   0.25633   Biso      1.000     C          0.6034649999999999  
         C43       1.0000    0.73590   0.71420   0.29863   Biso      1.000     C          -0.02278  
         C44       1.0000    0.87200   0.17620   0.40627   Biso      1.000     C          0.087309  
         C45       1.0000    0.06770   0.19060   0.04487   Biso      1.000     C          -0.132934           
         C46       1.0000    0.03270   0.30900   0.11042   Biso      1.000     C          0.37461   
         C47       1.0000    0.89930   0.06430   0.34871   Biso      1.000     C          0.11226199999999999           
         C48       1.0000    0.71420   0.73590   0.36803   Biso      1.000     C          -0.021752           
         C49       1.0000    0.72280   0.78820   0.71229   Biso      1.000     C          0.051605  
         C50       1.0000    0.12800   0.30420   0.92707   Biso      1.000     C          0.08535   
         C51       1.0000    0.41970   0.98380   0.03750   Biso      1.000     C          0.16235   
         C52       1.0000    0.48970   0.48970   0.83333   Biso      1.000     C          0.048812  
         C53       1.0000    0.96730   0.27630   0.22292   Biso      1.000     C          0.373508  
         C54       1.0000    0.96030   0.33180   0.59467   Biso      1.000     C          -0.25250700000000004          
         C55       1.0000    0.09650   0.33630   0.98589   Biso      1.000     C          -0.16530599999999998          
         C56       1.0000    0.43590   0.01620   0.96250   Biso      1.000     C          0.161992  
         C57       1.0000    0.41610   0.00000   0.50000   Biso      1.000     C          0.375472  
         C58       1.0000    0.76020   0.66370   0.01411   Biso      1.000     C          -0.166181           
         C59       1.0000    0.03970   0.37150   0.73867   Biso      1.000     C          -0.252558           
         C60       1.0000    0.03580   0.21120   0.74367   Biso      1.000     C          0.597903  
         C61       1.0000    0.90350   0.23980   0.34745   Biso      1.000     C          -0.165249           
         C62       1.0000    0.37150   0.03970   0.92800   Biso      1.000     C          -0.253725           
         C63       1.0000    0.93230   0.12290   0.28847   Biso      1.000     C          -0.13248900000000002          
         C64       1.0000    0.03930   0.57600   0.10937   Biso      1.000     C          -0.163753           
         C65       1.0000    0.23980   0.90350   0.31922   Biso      1.000     C          -0.166189           
         C66       1.0000    0.06540   0.27720   0.04563   Biso      1.000     C          0.051029000000000005          
         C67       1.0000    0.58390   0.58390   0.83333   Biso      1.000     C          0.37513   
         C68       1.0000    0.12290   0.93230   0.37820   Biso      1.000     C          -0.13433900000000001          
         C69       1.0000    0.80940   0.87710   0.71153   Biso      1.000     C          -0.13280999999999998          
         C70       1.0000    0.69580   0.82380   0.59373   Biso      1.000     C          0.087062  
         C71       1.0000    0.58030   0.56410   0.29583   Biso      1.000     C          0.161339  
         C72       1.0000    0.78820   0.72280   0.95437   Biso      1.000     C          0.052195000000000005          
         C73       1.0000    0.27630   0.96730   0.44375   Biso      1.000     C          0.375231  
         C74       1.0000    0.62850   0.66820   0.40533   Biso      1.000     C          -0.253294           
         C75       1.0000    0.30420   0.12800   0.73960   Biso      1.000     C          0.083235  
         C76       1.0000    0.66820   0.62850   0.26133   Biso      1.000     C          -0.252938           
         C77       1.0000    0.83500   0.93570   0.65129   Biso      1.000     C          0.111417  
         C78       1.0000    0.00000   0.51030   0.16667   Biso      1.000     C          0.053006  
         F1        1.0000    0.03920   0.52250   0.73217   Biso      1.000     F          -0.126654           
         F2        1.0000    0.48330   0.96080   0.06550   Biso      1.000     F          -0.126437           
         F3        1.0000    0.96080   0.48330   0.60117   Biso      1.000     F          -0.12676400000000002          
         F4        1.0000    0.52250   0.03920   0.93450   Biso      1.000     F          -0.12651199999999999          
         F5        1.0000    0.47750   0.51670   0.39883   Biso      1.000     F          -0.127531           
         F6        1.0000    0.51670   0.47750   0.26783   Biso      1.000     F          -0.127345           
         H1        1.0000    0.90360   0.29910   0.34867   Biso      1.000     H          0.131226  
         H2        1.0000    0.99590   0.89330   0.01513   Biso      1.000     H          0.107603  
         H3        1.0000    0.43790   0.50480   0.73683   Biso      1.000     H          0.136451  
         H4        1.0000    0.60450   0.70090   0.65133   Biso      1.000     H          0.131512  
         H5        1.0000    0.29910   0.90360   0.31800   Biso      1.000     H          0.13258599999999998           
         H6        1.0000    0.95300   0.10260   0.24857   Biso      1.000     H          0.139062  
         H7        1.0000    0.34360   0.14860   0.78030   Biso      1.000     H          0.09765599999999999           
         H8        1.0000    0.89740   0.00410   0.34847   Biso      1.000     H          0.107649  
         H9        1.0000    0.06110   0.70550   0.07407   Biso      1.000     H          0.105048  
         H10       1.0000    0.14960   0.04700   0.58190   Biso      1.000     H          0.140676  
         H11       1.0000    0.93370   0.31820   0.54877   Biso      1.000     H          0.150344  
         H12       1.0000    0.19500   0.85140   0.21970   Biso      1.000     H          0.09592200000000001           
         H13       1.0000    0.61550   0.68180   0.45123   Biso      1.000     H          0.149978  
         H14       1.0000    0.09640   0.39550   0.98467   Biso      1.000     H          0.132706  
         H15       1.0000    0.93890   0.64440   0.25927   Biso      1.000     H          0.10461500000000001           
         H16       1.0000    0.70090   0.60450   0.01533   Biso      1.000     H          0.132301  
         H17       1.0000    0.68180   0.61550   0.21543   Biso      1.000     H          0.150151  
         H18       1.0000    0.31820   0.93370   0.11790   Biso      1.000     H          0.15066500000000002           
         H19       1.0000    0.56210   0.06690   0.59650   Biso      1.000     H          0.139178  
         H20       1.0000    0.04700   0.14960   0.08477   Biso      1.000     H          0.140079  
         H21       1.0000    0.38450   0.06630   0.88210   Biso      1.000     H          0.150507  
         H22       1.0000    0.85140   0.19500   0.44697   Biso      1.000     H          0.095157  
         H23       1.0000    0.80500   0.65640   0.11363   Biso      1.000     H          0.09463099999999999           
         H24       1.0000    0.39550   0.09640   0.68200   Biso      1.000     H          0.133287  
         H25       1.0000    0.35560   0.29450   0.92593   Biso      1.000     H          0.10168200000000001           
         H26       1.0000    0.10260   0.10670   0.98487   Biso      1.000     H          0.10940799999999999           
         H27       1.0000    0.14860   0.34360   0.88637   Biso      1.000     H          0.09640900000000001           
         H28       1.0000    0.89330   0.99590   0.65153   Biso      1.000     H          0.107307  
         H29       1.0000    0.10260   0.95300   0.41810   Biso      1.000     H          0.139974  
         H30       1.0000    0.29450   0.35560   0.74073   Biso      1.000     H          0.101189  
         H31       1.0000    0.85040   0.89740   0.75143   Biso      1.000     H          0.139526  
         H32       1.0000    0.06690   0.56210   0.07017   Biso      1.000     H          0.137518  
         H33       1.0000    0.49520   0.93310   0.40350   Biso      1.000     H          0.13919600000000001           
         H34       1.0000    0.64440   0.93890   0.40740   Biso      1.000     H          0.10538800000000001           
         H35       1.0000    0.00410   0.89740   0.31820   Biso      1.000     H          0.10845899999999999           
         H36       1.0000    0.10670   0.10260   0.68180   Biso      1.000     H          0.109895  
         H37       1.0000    0.65640   0.80500   0.55303   Biso      1.000     H          0.095113  
         H38       1.0000    0.50480   0.43790   0.92983   Biso      1.000     H          0.13533   
         H39       1.0000    0.89740   0.85040   0.91523   Biso      1.000     H          0.13983900000000002           
         H40       1.0000    0.06630   0.38450   0.78457   Biso      1.000     H          0.150353  
         H41       1.0000    0.70550   0.06110   0.59260   Biso      1.000     H          0.105325  
         H42       1.0000    0.93310   0.49520   0.26317   Biso      1.000     H          0.13865999999999998           
         N1        1.0000    0.00000   0.68980   0.16667   Biso      1.000     N          -0.170627           
         N2        1.0000    0.13020   0.22120   0.92608   Biso      1.000     N          -0.172691           
         N3        1.0000    0.60540   0.63880   0.77416   Biso      1.000     N          -0.39058200000000004          
         N4        1.0000    0.63880   0.60540   0.89250   Biso      1.000     N          -0.391809           
         N5        1.0000    0.90900   0.77880   0.07392   Biso      1.000     N          -0.20011500000000002          
         N6        1.0000    0.09100   0.86980   0.25941   Biso      1.000     N          -0.19885799999999998          
         N7        1.0000    0.68980   0.00000   0.50000   Biso      1.000     N          -0.171452           
         N8        1.0000    0.75370   0.75370   0.83333   Biso      1.000     N          -0.38098000000000004          
         N9        1.0000    0.00000   0.24630   0.16667   Biso      1.000     N          -0.378965           
         N10       1.0000    0.31020   0.31020   0.83333   Biso      1.000     N          -0.177795           
         N11       1.0000    0.77880   0.90900   0.59274   Biso      1.000     N          -0.200485           
         N12       1.0000    0.36120   0.96660   0.44083   Biso      1.000     N          -0.391902           
         N13       1.0000    0.39460   0.03340   0.55917   Biso      1.000     N          -0.391853           
         N14       1.0000    0.86980   0.09100   0.40726   Biso      1.000     N          -0.199899           
         N15       1.0000    0.22120   0.13020   0.74059   Biso      1.000     N          -0.172037           
         N16       1.0000    0.24630   0.00000   0.50000   Biso      1.000     N          -0.38001599999999996          
         N17       1.0000    0.96660   0.36120   0.22584   Biso      1.000     N          -0.39036  
         N18       1.0000    0.03340   0.39460   0.10750   Biso      1.000     N          -0.391534           
         Ni1       1.0000    0.17635   0.17635   0.83333   Biso      1.000     Ni          0.589183  
         Ni2       1.0000    0.00000   0.82365   0.16667   Biso      1.000     Ni          0.686775  
         Ni3       1.0000    0.82365   0.00000   0.50000   Biso      1.000     Ni          0.686703  
         O1        1.0000    0.84120   0.87400   0.25163   Biso      1.000     O          -0.58929  
         O2        1.0000    0.87400   0.84120   0.41503   Biso      1.000     O          -0.588753           
         O3        1.0000    0.11918   0.24456   0.77020   Biso      1.000     O          -0.548248           
         O4        1.0000    0.75544   0.87462   0.43686   Biso      1.000     O          -0.582901           
         O5        1.0000    0.12600   0.96720   0.91830   Biso      1.000     O          -0.583358           
         O6        1.0000    0.96720   0.12600   0.74837   Biso      1.000     O          -0.583561           
         O7        1.0000    0.03280   0.15880   0.58497   Biso      1.000     O          -0.588443           
         O8        1.0000    0.12538   0.88082   0.10353   Biso      1.000     O          -0.583357           
         O9        1.0000    0.24456   0.11918   0.89647   Biso      1.000     O          -0.548841           
         O10       1.0000    0.87462   0.75544   0.22980   Biso      1.000     O          -0.583108           
         O11       1.0000    0.88082   0.12538   0.56314   Biso      1.000     O          -0.582581           
         O12       1.0000    0.15880   0.03280   0.08170   Biso      1.000     O          -0.588788 