
##########################################################################
#               Crystallographic Information Format file
#               Produced by PyCifRW module
#
#  This is a CIF file.  CIF has been adopted by the International
#  Union of Crystallography as the standard for data archiving and
#  transmission.
#
#  For information on this file format, follow the CIF links at
#  http://www.iucr.org
##########################################################################

data_image0

_cell_length_a                          15.54
_cell_length_b                          15.54
_cell_length_c                          18.679
_cell_angle_alpha                       90
_cell_angle_beta                        90
_cell_angle_gamma                       120
_symmetry_space_group_name_H-M          'P 1'
_symmetry_int_tables_number             1
loop_
  _symmetry_equiv_pos_as_xyz
         'x, y, z' 
loop_
  _atom_site_label
  _atom_site_occupancy
  _atom_site_fract_x
  _atom_site_fract_y
  _atom_site_fract_z
  _atom_site_thermal_displace_type
  _atom_site_B_iso_or_equiv
  _atom_site_type_symbol
  _atom_site_charge
         C1        1.0000    0.09450   0.15970   0.01638   Biso      1.000     C          0.11555699999999999           
         C2        1.0000    0.37560   0.33450   0.11387   Biso      1.000     C          0.088742  
         C3        1.0000    0.04110   0.66550   0.88613   Biso      1.000     C          0.084213  
         C4        1.0000    0.96730   0.27410   0.77873   Biso      1.000     C          0.374316  
         C5        1.0000    0.03270   0.30680   0.88793   Biso      1.000     C          0.374188  
         C6        1.0000    0.27410   0.96730   0.55460   Biso      1.000     C          0.37395300000000004           
         C7        1.0000    0.90550   0.06520   0.65028   Biso      1.000     C          0.115752  
         C8        1.0000    0.73070   0.71560   0.70150   Biso      1.000     C          -0.109946           
         C9        1.0000    0.12520   0.94070   0.62380   Biso      1.000     C          -0.153319           
         C10       1.0000    0.41550   0.00000   0.50000   Biso      1.000     C          0.372758  
         C11       1.0000    0.15970   0.09450   0.31695   Biso      1.000     C          0.115602  
         C12       1.0000    0.44080   0.02090   0.03513   Biso      1.000     C          -0.21556799999999998          
         C13       1.0000    0.82090   0.78990   0.74310   Biso      1.000     C          0.598534  
         C14       1.0000    0.97910   0.41990   0.36847   Biso      1.000     C          -0.2164   
         C15       1.0000    0.57530   0.03900   0.44480   Biso      1.000     C          -0.160607           
         C16       1.0000    0.94070   0.12520   0.70953   Biso      1.000     C          -0.138686           
         C17       1.0000    0.41990   0.97910   0.96487   Biso      1.000     C          -0.21548499999999998          
         C18       1.0000    0.95890   0.62440   0.78053   Biso      1.000     C          0.082367  
         C19       1.0000    0.06520   0.90550   0.68305   Biso      1.000     C          0.11326099999999999           
         C20       1.0000    0.20920   0.93460   0.62090   Biso      1.000     C          0.049458999999999996          
         C21       1.0000    0.36800   0.02690   0.07893   Biso      1.000     C          0.22751999999999997           
         C22       1.0000    0.69320   0.72590   0.22127   Biso      1.000     C          0.375251  
         C23       1.0000    0.71560   0.73070   0.63183   Biso      1.000     C          -0.11133499999999999          
         C24       1.0000    0.33910   0.10400   0.32209   Biso      1.000     C          -0.166822           
         C25       1.0000    0.01510   0.28440   0.29850   Biso      1.000     C          -0.110375           
         C26       1.0000    0.00000   0.51110   0.83333   Biso      1.000     C          0.056507  
         C27       1.0000    0.62440   0.95890   0.55280   Biso      1.000     C          0.090697  
         C28       1.0000    0.97310   0.34110   0.41227   Biso      1.000     C          0.227302  
         C29       1.0000    0.58010   0.55920   0.70180   Biso      1.000     C          -0.215786           
         C30       1.0000    0.02090   0.44080   0.29820   Biso      1.000     C          -0.216979           
         C31       1.0000    0.30680   0.03270   0.44540   Biso      1.000     C          0.374234  
         C32       1.0000    0.33450   0.37560   0.21947   Biso      1.000     C          0.086998  
         C33       1.0000    0.48890   0.48890   0.16667   Biso      1.000     C          0.060641999999999995          
         C34       1.0000    0.34110   0.97310   0.92107   Biso      1.000     C          0.22705799999999998           
         C35       1.0000    0.63200   0.65890   0.58773   Biso      1.000     C          0.22786199999999998           
         C36       1.0000    0.55920   0.58010   0.63153   Biso      1.000     C          -0.215292           
         C37       1.0000    0.18450   0.05930   0.37620   Biso      1.000     C          -0.15351199999999998          
         C38       1.0000    0.66550   0.04110   0.44720   Biso      1.000     C          0.090759  
         C39       1.0000    0.76490   0.66090   0.98876   Biso      1.000     C          -0.166729           
         C40       1.0000    0.84030   0.93480   0.34972   Biso      1.000     C          0.11656199999999999           
         C41       1.0000    0.17910   0.96900   0.92357   Biso      1.000     C          0.597956  
         C42       1.0000    0.89600   0.23510   0.65542   Biso      1.000     C          -0.167437           
         C43       1.0000    0.98490   0.26930   0.36817   Biso      1.000     C          -0.112073           
         C44       1.0000    0.66090   0.76490   0.34458   Biso      1.000     C          -0.167482           
         C45       1.0000    0.93460   0.20920   0.71243   Biso      1.000     C          0.050436  
         C46       1.0000    0.86520   0.17170   0.59673   Biso      1.000     C          0.087399  
         C47       1.0000    0.81550   0.87480   0.29047   Biso      1.000     C          -0.138428           
         C48       1.0000    0.03100   0.21010   0.25690   Biso      1.000     C          0.603767  
         C49       1.0000    0.72540   0.79080   0.28757   Biso      1.000     C          0.049585000000000004          
         C50       1.0000    0.42470   0.46370   0.22187   Biso      1.000     C          -0.15826700000000002          
         C51       1.0000    0.05930   0.18450   0.95713   Biso      1.000     C          -0.139101           
         C52       1.0000    0.10400   0.33910   0.01124   Biso      1.000     C          -0.167657           
         C53       1.0000    0.30650   0.13480   0.26340   Biso      1.000     C          0.088363  
         C54       1.0000    0.02690   0.36800   0.25440   Biso      1.000     C          0.22619899999999998           
         C55       1.0000    0.17170   0.86520   0.73660   Biso      1.000     C          0.08644600000000001           
         C56       1.0000    0.00000   0.41550   0.83333   Biso      1.000     C          0.375323  
         C57       1.0000    0.26930   0.98490   0.96517   Biso      1.000     C          -0.111694           
         C58       1.0000    0.51110   0.00000   0.50000   Biso      1.000     C          0.063292  
         C59       1.0000    0.58450   0.58450   0.16667   Biso      1.000     C          0.373188  
         C60       1.0000    0.96900   0.17910   0.40977   Biso      1.000     C          0.6035659999999999  
         C61       1.0000    0.06540   0.27460   0.95423   Biso      1.000     C          0.051293  
         C62       1.0000    0.82830   0.69350   0.93007   Biso      1.000     C          0.084882  
         C63       1.0000    0.03900   0.57530   0.88853   Biso      1.000     C          -0.16257  
         C64       1.0000    0.69350   0.82830   0.40327   Biso      1.000     C          0.087716  
         C65       1.0000    0.78990   0.82090   0.59023   Biso      1.000     C          0.603144  
         C66       1.0000    0.79080   0.72540   0.04577   Biso      1.000     C          0.050397000000000004          
         C67       1.0000    0.21010   0.03100   0.07643   Biso      1.000     C          0.602789  
         C68       1.0000    0.28440   0.01510   0.03483   Biso      1.000     C          -0.111515           
         C69       1.0000    0.46370   0.42470   0.11147   Biso      1.000     C          -0.160044           
         C70       1.0000    0.72590   0.69320   0.11207   Biso      1.000     C          0.374835  
         C71       1.0000    0.87480   0.81550   0.04287   Biso      1.000     C          -0.138577           
         C72       1.0000    0.96100   0.53630   0.77813   Biso      1.000     C          -0.16076600000000002          
         C73       1.0000    0.65890   0.63200   0.74560   Biso      1.000     C          0.22633000000000003           
         C74       1.0000    0.27460   0.06540   0.37910   Biso      1.000     C          0.049510000000000005          
         C75       1.0000    0.23510   0.89600   0.67791   Biso      1.000     C          -0.16583299999999998          
         C76       1.0000    0.93480   0.84030   0.98362   Biso      1.000     C          0.11399100000000001           
         C77       1.0000    0.13480   0.30650   0.06993   Biso      1.000     C          0.08654099999999999           
         C78       1.0000    0.53630   0.96100   0.55520   Biso      1.000     C          -0.160593           
         F1        1.0000    0.66020   0.60550   0.81570   Biso      1.000     F          -0.130517           
         F2        1.0000    0.39450   0.05470   0.14903   Biso      1.000     F          -0.130393           
         F3        1.0000    0.60550   0.66020   0.51763   Biso      1.000     F          -0.130412           
         F4        1.0000    0.05470   0.39450   0.18430   Biso      1.000     F          -0.130638           
         F5        1.0000    0.94530   0.33980   0.48237   Biso      1.000     F          -0.130667           
         F6        1.0000    0.33980   0.94530   0.85097   Biso      1.000     F          -0.130529           
         H1        1.0000    0.84020   0.18870   0.55733   Biso      1.000     H          0.089501  
         H2        1.0000    0.45910   0.95450   0.94667   Biso      1.000     H          0.136821  
         H3        1.0000    0.92730   0.63780   0.74343   Biso      1.000     H          0.10723599999999998           
         H4        1.0000    0.89170   0.85990   0.08067   Biso      1.000     H          0.13807   
         H5        1.0000    0.10920   0.40140   0.01043   Biso      1.000     H          0.135217  
         H6        1.0000    0.28950   0.36220   0.25657   Biso      1.000     H          0.11028699999999998           
         H7        1.0000    0.00630   0.90730   0.68360   Biso      1.000     H          0.10682   
         H8        1.0000    0.09270   0.09900   0.01693   Biso      1.000     H          0.104405  
         H9        1.0000    0.07270   0.71050   0.92323   Biso      1.000     H          0.10651500000000001           
         H10       1.0000    0.90730   0.00630   0.64973   Biso      1.000     H          0.103997  
         H11       1.0000    0.10830   0.96820   0.58600   Biso      1.000     H          0.153142  
         H12       1.0000    0.54090   0.49540   0.72000   Biso      1.000     H          0.137035  
         H13       1.0000    0.70780   0.59860   0.98957   Biso      1.000     H          0.135733  
         H14       1.0000    0.36220   0.28950   0.07677   Biso      1.000     H          0.10954900000000001           
         H15       1.0000    0.14010   0.03180   0.41400   Biso      1.000     H          0.152248  
         H16       1.0000    0.49540   0.54090   0.61333   Biso      1.000     H          0.136122  
         H17       1.0000    0.18870   0.84020   0.77600   Biso      1.000     H          0.09169   
         H18       1.0000    0.49460   0.93550   0.59480   Biso      1.000     H          0.13174   
         H19       1.0000    0.96820   0.10830   0.74733   Biso      1.000     H          0.137595  
         H20       1.0000    0.71050   0.07270   0.41010   Biso      1.000     H          0.108793  
         H21       1.0000    0.34850   0.15980   0.22400   Biso      1.000     H          0.089613  
         H22       1.0000    0.09900   0.09270   0.31640   Biso      1.000     H          0.10513199999999999           
         H23       1.0000    0.93550   0.49460   0.73853   Biso      1.000     H          0.129868  
         H24       1.0000    0.40140   0.10920   0.32290   Biso      1.000     H          0.13453299999999999           
         H25       1.0000    0.06450   0.55910   0.92813   Biso      1.000     H          0.130275  
         H26       1.0000    0.95450   0.45910   0.38667   Biso      1.000     H          0.135755  
         H27       1.0000    0.65150   0.81130   0.44267   Biso      1.000     H          0.089589  
         H28       1.0000    0.50460   0.04550   0.05333   Biso      1.000     H          0.136722  
         H29       1.0000    0.04550   0.50460   0.28000   Biso      1.000     H          0.136568  
         H30       1.0000    0.89080   0.29220   0.65623   Biso      1.000     H          0.13489400000000001           
         H31       1.0000    0.55910   0.06450   0.40520   Biso      1.000     H          0.13176   
         H32       1.0000    0.63780   0.92730   0.58990   Biso      1.000     H          0.10872799999999999           
         H33       1.0000    0.90100   0.99370   0.35027   Biso      1.000     H          0.10431900000000001           
         H34       1.0000    0.03180   0.14010   0.91933   Biso      1.000     H          0.13774   
         H35       1.0000    0.29220   0.89080   0.67710   Biso      1.000     H          0.135298  
         H36       1.0000    0.15980   0.34850   0.10933   Biso      1.000     H          0.08982899999999999           
         H37       1.0000    0.85990   0.89170   0.25267   Biso      1.000     H          0.137107  
         H38       1.0000    0.81130   0.65150   0.89067   Biso      1.000     H          0.091999  
         H39       1.0000    0.59860   0.70780   0.34377   Biso      1.000     H          0.134635  
         H40       1.0000    0.99370   0.90100   0.98307   Biso      1.000     H          0.10641099999999999           
         H41       1.0000    0.44090   0.50540   0.26147   Biso      1.000     H          0.132021  
         H42       1.0000    0.50540   0.44090   0.07187   Biso      1.000     H          0.132378  
         N1        1.0000    0.24390   0.00000   0.50000   Biso      1.000     N          -0.370618           
         N2        1.0000    0.64060   0.60610   0.10804   Biso      1.000     N          -0.39310100000000003          
         N3        1.0000    0.39390   0.03450   0.44137   Biso      1.000     N          -0.39277199999999995          
         N4        1.0000    0.78090   0.91180   0.40675   Biso      1.000     N          -0.202999           
         N5        1.0000    0.00000   0.24390   0.83333   Biso      1.000     N          -0.371582           
         N6        1.0000    0.30870   0.30870   0.16667   Biso      1.000     N          -0.171837           
         N7        1.0000    0.91180   0.78090   0.92659   Biso      1.000     N          -0.17635  
         N8        1.0000    0.03450   0.39390   0.89196   Biso      1.000     N          -0.393727           
         N9        1.0000    0.21910   0.13090   0.25992   Biso      1.000     N          -0.204087           
         N10       1.0000    0.96550   0.35940   0.77470   Biso      1.000     N          -0.393984           
         N11       1.0000    0.35940   0.96550   0.55863   Biso      1.000     N          -0.392853           
         N12       1.0000    0.60610   0.64060   0.22530   Biso      1.000     N          -0.39328  
         N13       1.0000    0.75610   0.75610   0.16667   Biso      1.000     N          -0.369818           
         N14       1.0000    0.08820   0.86910   0.74008   Biso      1.000     N          -0.176656           
         N15       1.0000    0.86910   0.08820   0.59325   Biso      1.000     N          -0.203604           
         N16       1.0000    0.00000   0.69130   0.83333   Biso      1.000     N          -0.17813199999999998          
         N17       1.0000    0.69130   0.00000   0.50000   Biso      1.000     N          -0.173537           
         N18       1.0000    0.13090   0.21910   0.07341   Biso      1.000     N          -0.204506           
         Ni1       1.0000    0.00000   0.82532   0.83333   Biso      1.000     Ni          0.610488  
         Ni2       1.0000    0.82532   0.00000   0.50000   Biso      1.000     Ni          0.7046359999999999  
         Ni3       1.0000    0.17468   0.17468   0.16667   Biso      1.000     Ni          0.7059989999999999  
         O1        1.0000    0.75641   0.87149   0.56164   Biso      1.000     O          -0.582639           
         O2        1.0000    0.11508   0.24359   0.22831   Biso      1.000     O          -0.583665           
         O3        1.0000    0.87780   0.83990   0.58703   Biso      1.000     O          -0.5857600000000001           
         O4        1.0000    0.03790   0.16010   0.41297   Biso      1.000     O          -0.585933           
         O5        1.0000    0.24359   0.11508   0.10502   Biso      1.000     O          -0.582813           
         O6        1.0000    0.83990   0.87780   0.74630   Biso      1.000     O          -0.580896           
         O7        1.0000    0.12851   0.88492   0.89498   Biso      1.000     O          -0.5517890000000001           
         O8        1.0000    0.16010   0.03790   0.92037   Biso      1.000     O          -0.580144           
         O9        1.0000    0.87149   0.75641   0.77169   Biso      1.000     O          -0.55232  
         O10       1.0000    0.88492   0.12851   0.43836   Biso      1.000     O          -0.582973           
         O11       1.0000    0.96210   0.12220   0.25370   Biso      1.000     O          -0.58618  
         O12       1.0000    0.12220   0.96210   0.07963   Biso      1.000     O          -0.5852649999999999 