
##########################################################################
#               Crystallographic Information Format file
#               Produced by PyCifRW module
#
#  This is a CIF file.  CIF has been adopted by the International
#  Union of Crystallography as the standard for data archiving and
#  transmission.
#
#  For information on this file format, follow the CIF links at
#  http://www.iucr.org
##########################################################################

data_image0

_cell_length_a                          15.638
_cell_length_b                          15.638
_cell_length_c                          18.499
_cell_angle_alpha                       90
_cell_angle_beta                        90
_cell_angle_gamma                       120
_symmetry_space_group_name_H-M          'P 1'
_symmetry_int_tables_number             1
loop_
  _symmetry_equiv_pos_as_xyz
         'x, y, z' 
loop_
  _atom_site_label
  _atom_site_occupancy
  _atom_site_fract_x
  _atom_site_fract_y
  _atom_site_fract_z
  _atom_site_thermal_displace_type
  _atom_site_B_iso_or_equiv
  _atom_site_type_symbol
  _atom_site_charge
         C1        1.0000    0.02130   0.28470   0.70127   Biso      1.000     C          0.001906  
         C2        1.0000    0.96510   0.62710   0.22167   Biso      1.000     C          0.089851  
         C3        1.0000    0.03540   0.57600   0.10877   Biso      1.000     C          -0.156619           
         C4        1.0000    0.93530   0.12560   0.28937   Biso      1.000     C          -0.127406           
         C5        1.0000    0.90470   0.06870   0.34967   Biso      1.000     C          0.108153  
         C6        1.0000    0.54060   0.96460   0.44210   Biso      1.000     C          -0.15566300000000002          
         C7        1.0000    0.12560   0.93530   0.37730   Biso      1.000     C          -0.12894  
         C8        1.0000    0.96310   0.17390   0.59057   Biso      1.000     C          0.60385   
         C9        1.0000    0.23690   0.90030   0.31960   Biso      1.000     C          -0.156721           
         C10       1.0000    0.12970   0.30550   0.92707   Biso      1.000     C          0.089904  
         C11       1.0000    0.45940   0.42400   0.89123   Biso      1.000     C          -0.156617           
         C12       1.0000    0.03220   0.31020   0.10977   Biso      1.000     C          0.385081  
         C13       1.0000    0.97870   0.26340   0.63207   Biso      1.000     C          0.002117  
         C14       1.0000    0.87030   0.17580   0.40627   Biso      1.000     C          0.08910900000000001           
         C15       1.0000    0.76310   0.66340   0.01373   Biso      1.000     C          -0.154831           
         C16       1.0000    0.78920   0.82610   0.40943   Biso      1.000     C          0.60385   
         C17       1.0000    0.16400   0.09530   0.68300   Biso      1.000     C          0.109742  
         C18       1.0000    0.06510   0.27840   0.04607   Biso      1.000     C          0.055479999999999995          
         C19       1.0000    0.21080   0.03690   0.92390   Biso      1.000     C          0.604184  
         C20       1.0000    0.68980   0.72200   0.77643   Biso      1.000     C          0.384273  
         C21       1.0000    0.17580   0.87030   0.26040   Biso      1.000     C          0.09009199999999999           
         C22       1.0000    0.06470   0.19030   0.04397   Biso      1.000     C          -0.127682           
         C23       1.0000    0.27800   0.96780   0.44310   Biso      1.000     C          0.383662  
         C24       1.0000    0.00000   0.51180   0.16667   Biso      1.000     C          0.057587  
         C25       1.0000    0.43910   0.02530   0.96410   Biso      1.000     C          0.022502  
         C26       1.0000    0.02530   0.43910   0.70257   Biso      1.000     C          0.022922  
         C27       1.0000    0.97470   0.41380   0.63077   Biso      1.000     C          0.021628  
         C28       1.0000    0.21330   0.93490   0.37940   Biso      1.000     C          0.057481  
         C29       1.0000    0.93490   0.21330   0.28727   Biso      1.000     C          0.056602  
         C30       1.0000    0.41710   0.00000   0.50000   Biso      1.000     C          0.38448000000000004           
         C31       1.0000    0.03690   0.21080   0.74277   Biso      1.000     C          0.604248  
         C32       1.0000    0.30550   0.12970   0.73960   Biso      1.000     C          0.090086  
         C33       1.0000    0.82420   0.69450   0.07293   Biso      1.000     C          0.089911  
         C34       1.0000    0.87440   0.80970   0.95603   Biso      1.000     C          -0.127692           
         C35       1.0000    0.90030   0.23690   0.34707   Biso      1.000     C          -0.15625899999999998          
         C36       1.0000    0.66200   0.03490   0.55500   Biso      1.000     C          0.089577  
         C37       1.0000    0.36900   0.04020   0.92780   Biso      1.000     C          -0.15554300000000001          
         C38       1.0000    0.48820   0.48820   0.83333   Biso      1.000     C          0.057589  
         C39       1.0000    0.09530   0.16400   0.98367   Biso      1.000     C          0.10842   
         C40       1.0000    0.04020   0.36900   0.73887   Biso      1.000     C          -0.154827           
         C41       1.0000    0.66340   0.76310   0.65293   Biso      1.000     C          -0.156279           
         C42       1.0000    0.95980   0.32880   0.59447   Biso      1.000     C          -0.154283           
         C43       1.0000    0.09970   0.33660   0.98627   Biso      1.000     C          -0.154813           
         C44       1.0000    0.62710   0.96510   0.44500   Biso      1.000     C          0.08959600000000001           
         C45       1.0000    0.72160   0.78670   0.71273   Biso      1.000     C          0.056607000000000005          
         C46       1.0000    0.31020   0.03220   0.55690   Biso      1.000     C          0.383662  
         C47       1.0000    0.19030   0.06470   0.62270   Biso      1.000     C          -0.128926           
         C48       1.0000    0.73660   0.71530   0.29873   Biso      1.000     C          0.001905  
         C49       1.0000    0.03490   0.66200   0.11167   Biso      1.000     C          0.09023300000000001           
         C50       1.0000    0.41380   0.97470   0.03590   Biso      1.000     C          0.022502  
         C51       1.0000    0.33660   0.09970   0.68040   Biso      1.000     C          -0.15671600000000002          
         C52       1.0000    0.57600   0.03540   0.55790   Biso      1.000     C          -0.155645           
         C53       1.0000    0.72200   0.68980   0.89023   Biso      1.000     C          0.385079  
         C54       1.0000    0.42400   0.45940   0.77543   Biso      1.000     C          -0.15687  
         C55       1.0000    0.93130   0.83600   0.01633   Biso      1.000     C          0.108421  
         C56       1.0000    0.56090   0.58620   0.36923   Biso      1.000     C          0.021627  
         C57       1.0000    0.58620   0.56090   0.29743   Biso      1.000     C          0.02292   
         C58       1.0000    0.96780   0.27800   0.22357   Biso      1.000     C          0.384274  
         C59       1.0000    0.69450   0.82420   0.59373   Biso      1.000     C          0.089117  
         C60       1.0000    0.37290   0.33800   0.88833   Biso      1.000     C          0.09023300000000001           
         C61       1.0000    0.58290   0.58290   0.83333   Biso      1.000     C          0.38419000000000003           
         C62       1.0000    0.96460   0.54060   0.22457   Biso      1.000     C          -0.156853           
         C63       1.0000    0.82610   0.78920   0.25723   Biso      1.000     C          0.60425   
         C64       1.0000    0.28470   0.02130   0.96540   Biso      1.000     C          0.001984  
         C65       1.0000    0.26340   0.97870   0.03460   Biso      1.000     C          0.001982  
         C66       1.0000    0.06870   0.90470   0.31700   Biso      1.000     C          0.109757  
         C67       1.0000    0.51180   0.00000   0.50000   Biso      1.000     C          0.058112  
         C68       1.0000    0.71530   0.73660   0.36793   Biso      1.000     C          0.002116  
         C69       1.0000    0.80970   0.87440   0.71063   Biso      1.000     C          -0.1274   
         C70       1.0000    0.00000   0.41710   0.16667   Biso      1.000     C          0.38419000000000003           
         C71       1.0000    0.78670   0.72160   0.95393   Biso      1.000     C          0.055497000000000005          
         C72       1.0000    0.63100   0.67120   0.40553   Biso      1.000     C          -0.15428499999999998          
         C73       1.0000    0.83600   0.93130   0.65033   Biso      1.000     C          0.108151  
         C74       1.0000    0.17390   0.96310   0.07610   Biso      1.000     C          0.6041850000000001  
         C75       1.0000    0.27840   0.06510   0.62060   Biso      1.000     C          0.057477999999999994          
         C76       1.0000    0.33800   0.37290   0.77833   Biso      1.000     C          0.089869  
         C77       1.0000    0.32880   0.95980   0.07220   Biso      1.000     C          -0.155539           
         C78       1.0000    0.67120   0.63100   0.26113   Biso      1.000     C          -0.154828           
         H1        1.0000    0.15110   0.34560   0.88627   Biso      1.000     H          0.095983  
         H2        1.0000    0.43990   0.49950   0.73473   Biso      1.000     H          0.135428  
         H3        1.0000    0.70530   0.60240   0.01453   Biso      1.000     H          0.128003  
         H4        1.0000    0.89690   0.98910   0.64953   Biso      1.000     H          0.103771  
         H5        1.0000    0.10530   0.95660   0.41730   Biso      1.000     H          0.13635899999999998           
         H6        1.0000    0.84890   0.19450   0.44707   Biso      1.000     H          0.096627  
         H7        1.0000    0.85130   0.89470   0.75063   Biso      1.000     H          0.13591   
         H8        1.0000    0.29540   0.35610   0.73913   Biso      1.000     H          0.10646099999999999           
         H9        1.0000    0.95660   0.10530   0.24937   Biso      1.000     H          0.13591099999999998           
         H10       1.0000    0.68330   0.62140   0.21343   Biso      1.000     H          0.14394200000000001           
         H11       1.0000    0.06190   0.37860   0.78657   Biso      1.000     H          0.14394300000000002           
         H12       1.0000    0.34560   0.15110   0.78040   Biso      1.000     H          0.095769  
         H13       1.0000    0.09220   0.10310   0.98287   Biso      1.000     H          0.104176  
         H14       1.0000    0.37860   0.06190   0.88010   Biso      1.000     H          0.14418699999999998           
         H15       1.0000    0.93810   0.31670   0.54677   Biso      1.000     H          0.14384   
         H16       1.0000    0.90780   0.01090   0.35047   Biso      1.000     H          0.103772  
         H17       1.0000    0.60240   0.70530   0.65213   Biso      1.000     H          0.128579  
         H18       1.0000    0.80550   0.65440   0.11373   Biso      1.000     H          0.095983  
         H19       1.0000    0.98910   0.89690   0.01713   Biso      1.000     H          0.104174  
         H20       1.0000    0.89710   0.29470   0.34787   Biso      1.000     H          0.128579  
         H21       1.0000    0.05960   0.56010   0.06807   Biso      1.000     H          0.135088  
         H22       1.0000    0.93930   0.64390   0.26087   Biso      1.000     H          0.10646199999999999           
         H23       1.0000    0.06070   0.70460   0.07247   Biso      1.000     H          0.106054  
         H24       1.0000    0.62140   0.68330   0.45323   Biso      1.000     H          0.14383900000000002           
         H25       1.0000    0.65440   0.80550   0.55293   Biso      1.000     H          0.096627  
         H26       1.0000    0.56010   0.05960   0.59860   Biso      1.000     H          0.134214  
         H27       1.0000    0.04340   0.14870   0.08397   Biso      1.000     H          0.136169  
         H28       1.0000    0.19450   0.84890   0.21960   Biso      1.000     H          0.095769  
         H29       1.0000    0.70460   0.06070   0.59420   Biso      1.000     H          0.10638   
         H30       1.0000    0.10310   0.09220   0.68380   Biso      1.000     H          0.103415  
         H31       1.0000    0.39760   0.10290   0.68120   Biso      1.000     H          0.128909  
         H32       1.0000    0.50050   0.94040   0.40140   Biso      1.000     H          0.134216  
         H33       1.0000    0.49950   0.43990   0.93193   Biso      1.000     H          0.13508900000000001           
         H34       1.0000    0.35610   0.29540   0.92753   Biso      1.000     H          0.106056  
         H35       1.0000    0.01090   0.90780   0.31620   Biso      1.000     H          0.103414  
         H36       1.0000    0.89470   0.85130   0.91603   Biso      1.000     H          0.136169  
         H37       1.0000    0.10290   0.39760   0.98547   Biso      1.000     H          0.128004  
         H38       1.0000    0.64390   0.93930   0.40580   Biso      1.000     H          0.10638   
         H39       1.0000    0.94040   0.50050   0.26527   Biso      1.000     H          0.135426  
         H40       1.0000    0.14870   0.04340   0.58270   Biso      1.000     H          0.13635899999999998           
         H41       1.0000    0.31670   0.93810   0.11990   Biso      1.000     H          0.14418699999999998           
         H42       1.0000    0.29470   0.89710   0.31880   Biso      1.000     H          0.128909  
         N1        1.0000    0.52600   0.46340   0.26253   Biso      1.000     N          0.49004200000000003           
         N2        1.0000    0.03290   0.39560   0.10787   Biso      1.000     N          -0.392948           
         N3        1.0000    0.12960   0.22140   0.92566   Biso      1.000     N          -0.200567           
         N4        1.0000    0.47400   0.93740   0.07080   Biso      1.000     N          0.49053   
         N5        1.0000    0.00000   0.24840   0.16667   Biso      1.000     N          -0.382767           
         N6        1.0000    0.93740   0.47400   0.59587   Biso      1.000     N          0.490756  
         N7        1.0000    0.09180   0.87040   0.25899   Biso      1.000     N          -0.200326           
         N8        1.0000    0.68960   0.00000   0.50000   Biso      1.000     N          -0.176869           
         N9        1.0000    0.36270   0.96710   0.44120   Biso      1.000     N          -0.392611           
         N10       1.0000    0.00000   0.68960   0.16667   Biso      1.000     N          -0.17734  
         N11       1.0000    0.53660   0.06260   0.92920   Biso      1.000     N          0.49053   
         N12       1.0000    0.31040   0.31040   0.83333   Biso      1.000     N          -0.177341           
         N13       1.0000    0.60440   0.63730   0.77453   Biso      1.000     N          -0.392083           
         N14       1.0000    0.63730   0.60440   0.89213   Biso      1.000     N          -0.392948           
         N15       1.0000    0.24840   0.00000   0.50000   Biso      1.000     N          -0.382218           
         N16       1.0000    0.22140   0.12960   0.74101   Biso      1.000     N          -0.200323           
         N17       1.0000    0.06260   0.53660   0.73747   Biso      1.000     N          0.49004200000000003           
         N18       1.0000    0.75160   0.75160   0.83333   Biso      1.000     N          -0.382767           
         N19       1.0000    0.90820   0.77860   0.07434   Biso      1.000     N          -0.200568           
         N20       1.0000    0.46340   0.52600   0.40413   Biso      1.000     N          0.490756  
         N21       1.0000    0.96710   0.36270   0.22547   Biso      1.000     N          -0.392084           
         N22       1.0000    0.39560   0.03290   0.55880   Biso      1.000     N          -0.392611           
         N23       1.0000    0.77860   0.90820   0.59232   Biso      1.000     N          -0.199754           
         N24       1.0000    0.87040   0.09180   0.40768   Biso      1.000     N          -0.199754           
         Ni1       1.0000    0.82381   0.00000   0.50000   Biso      1.000     Ni          0.687665  
         Ni2       1.0000    0.17619   0.17619   0.83333   Biso      1.000     Ni          0.6883100000000001  
         Ni3       1.0000    0.00000   0.82381   0.16667   Biso      1.000     Ni          0.688315  
         O1        1.0000    0.40370   0.46100   0.36433   Biso      1.000     O          -0.275837           
         O2        1.0000    0.94270   0.53900   0.63567   Biso      1.000     O          -0.27583  
         O3        1.0000    0.15760   0.03170   0.08050   Biso      1.000     O          -0.580177           
         O4        1.0000    0.24380   0.11900   0.89737   Biso      1.000     O          -0.571908           
         O5        1.0000    0.12480   0.88100   0.10263   Biso      1.000     O          -0.571908           
         O6        1.0000    0.84240   0.87410   0.25283   Biso      1.000     O          -0.580372           
         O7        1.0000    0.45400   0.52800   0.46963   Biso      1.000     O          -0.367179           
         O8        1.0000    0.96830   0.12590   0.74717   Biso      1.000     O          -0.5803689999999999           
         O9        1.0000    0.87410   0.84240   0.41383   Biso      1.000     O          -0.580138           
         O10       1.0000    0.53900   0.94270   0.03100   Biso      1.000     O          -0.275806           
         O11       1.0000    0.07400   0.54600   0.80297   Biso      1.000     O          -0.366802           
         O12       1.0000    0.75620   0.87520   0.43596   Biso      1.000     O          -0.571782           
         O13       1.0000    0.59630   0.05730   0.96900   Biso      1.000     O          -0.275807           
         O14       1.0000    0.47200   0.92600   0.13630   Biso      1.000     O          -0.367149           
         O15       1.0000    0.12590   0.96830   0.91950   Biso      1.000     O          -0.580176           
         O16       1.0000    0.52800   0.45400   0.19703   Biso      1.000     O          -0.366804           
         O17       1.0000    0.05730   0.59630   0.69767   Biso      1.000     O          -0.276354           
         O18       1.0000    0.92600   0.47200   0.53037   Biso      1.000     O          -0.367174           
         O19       1.0000    0.03170   0.15760   0.58617   Biso      1.000     O          -0.580137           
         O20       1.0000    0.11900   0.24380   0.76930   Biso      1.000     O          -0.5717909999999999           
         O21       1.0000    0.46100   0.40370   0.30233   Biso      1.000     O          -0.27636  
         O22       1.0000    0.88100   0.12480   0.56404   Biso      1.000     O          -0.5717810000000001           
         O23       1.0000    0.54600   0.07400   0.86370   Biso      1.000     O          -0.367152           
         O24       1.0000    0.87520   0.75620   0.23070   Biso      1.000     O          -0.571792 