
##########################################################################
#               Crystallographic Information Format file
#               Produced by PyCifRW module
#
#  This is a CIF file.  CIF has been adopted by the International
#  Union of Crystallography as the standard for data archiving and
#  transmission.
#
#  For information on this file format, follow the CIF links at
#  http://www.iucr.org
##########################################################################

data_image0

_cell_length_a                          15.695
_cell_length_b                          15.695
_cell_length_c                          18.546
_cell_angle_alpha                       90
_cell_angle_beta                        90
_cell_angle_gamma                       120
_symmetry_space_group_name_H-M          'P 1'
_symmetry_int_tables_number             1
loop_
  _symmetry_equiv_pos_as_xyz
         'x, y, z' 
loop_
  _atom_site_label
  _atom_site_occupancy
  _atom_site_fract_x
  _atom_site_fract_y
  _atom_site_fract_z
  _atom_site_thermal_displace_type
  _atom_site_B_iso_or_equiv
  _atom_site_type_symbol
  _atom_site_charge
         C1        1.0000    0.36980   0.04230   0.42763   Biso      1.000     C          -0.131448           
         C2        1.0000    0.23820   0.89990   0.81967   Biso      1.000     C          -0.166709           
         C3        1.0000    0.82450   0.78940   0.75737   Biso      1.000     C          0.607557  
         C4        1.0000    0.41510   0.97820   0.53997   Biso      1.000     C          -0.141142           
         C5        1.0000    0.16470   0.09740   0.18323   Biso      1.000     C          0.109857  
         C6        1.0000    0.57570   0.03870   0.05623   Biso      1.000     C          -0.165965           
         C7        1.0000    0.72230   0.69230   0.39027   Biso      1.000     C          0.377632  
         C8        1.0000    0.66170   0.76180   0.15300   Biso      1.000     C          -0.166767           
         C9        1.0000    0.28000   0.06760   0.12083   Biso      1.000     C          0.048986  
         C10       1.0000    0.12640   0.93640   0.87707   Biso      1.000     C          -0.151545           
         C11       1.0000    0.32750   0.95770   0.57237   Biso      1.000     C          -0.131446           
         C12       1.0000    0.06360   0.19000   0.54373   Biso      1.000     C          -0.138085           
         C13       1.0000    0.97000   0.27770   0.72360   Biso      1.000     C          0.377223  
         C14       1.0000    0.95770   0.32750   0.09430   Biso      1.000     C          -0.132329           
         C15       1.0000    0.04230   0.36980   0.23903   Biso      1.000     C          -0.131559           
         C16       1.0000    0.03510   0.21060   0.24263   Biso      1.000     C          0.607557  
         C17       1.0000    0.96130   0.53700   0.72290   Biso      1.000     C          -0.165283           
         C18       1.0000    0.41480   0.00000   0.00000   Biso      1.000     C          0.371886  
         C19       1.0000    0.00000   0.41480   0.66667   Biso      1.000     C          0.373033  
         C20       1.0000    0.03870   0.57570   0.61043   Biso      1.000     C          -0.167124           
         C21       1.0000    0.30570   0.13080   0.24003   Biso      1.000     C          0.087191  
         C22       1.0000    0.90260   0.06730   0.84990   Biso      1.000     C          0.10943   
         C23       1.0000    0.27770   0.97000   0.94307   Biso      1.000     C          0.376938  
         C24       1.0000    0.37430   0.33790   0.38777   Biso      1.000     C          0.092596  
         C25       1.0000    0.93240   0.21240   0.78750   Biso      1.000     C          0.04886   
         C26       1.0000    0.96360   0.62570   0.72110   Biso      1.000     C          0.090337  
         C27       1.0000    0.33790   0.37430   0.27890   Biso      1.000     C          0.090328  
         C28       1.0000    0.97820   0.41510   0.12670   Biso      1.000     C          -0.137463           
         C29       1.0000    0.09740   0.16470   0.48343   Biso      1.000     C          0.111174  
         C30       1.0000    0.76180   0.66170   0.51367   Biso      1.000     C          -0.166526           
         C31       1.0000    0.42430   0.46300   0.27710   Biso      1.000     C          -0.165275           
         C32       1.0000    0.17550   0.96490   0.57597   Biso      1.000     C          0.607335  
         C33       1.0000    0.87360   0.81000   0.45627   Biso      1.000     C          -0.138085           
         C34       1.0000    0.28560   0.02280   0.46543   Biso      1.000     C          -0.027046           
         C35       1.0000    0.66210   0.03640   0.05443   Biso      1.000     C          0.090707  
         C36       1.0000    0.13080   0.30570   0.42663   Biso      1.000     C          0.086939  
         C37       1.0000    0.21240   0.93240   0.87917   Biso      1.000     C          0.049002  
         C38       1.0000    0.73720   0.71440   0.79877   Biso      1.000     C          -0.027757           
         C39       1.0000    0.26280   0.97720   0.53457   Biso      1.000     C          -0.027045           
         C40       1.0000    0.58490   0.56310   0.79337   Biso      1.000     C          -0.13819  
         C41       1.0000    0.58520   0.58520   0.33333   Biso      1.000     C          0.373032  
         C42       1.0000    0.53700   0.96130   0.94377   Biso      1.000     C          -0.165966           
         C43       1.0000    0.78940   0.82450   0.90930   Biso      1.000     C          0.608023  
         C44       1.0000    0.03640   0.66210   0.61223   Biso      1.000     C          0.092604  
         C45       1.0000    0.69230   0.72230   0.27640   Biso      1.000     C          0.377223  
         C46       1.0000    0.89990   0.23820   0.84700   Biso      1.000     C          -0.166759           
         C47       1.0000    0.83530   0.93270   0.15010   Biso      1.000     C          0.10943   
         C48       1.0000    0.51170   0.00000   0.00000   Biso      1.000     C          0.058103  
         C49       1.0000    0.67250   0.63020   0.76097   Biso      1.000     C          -0.131556           
         C50       1.0000    0.10010   0.33830   0.48633   Biso      1.000     C          -0.166527           
         C51       1.0000    0.43690   0.02180   0.46003   Biso      1.000     C          -0.141141           
         C52       1.0000    0.97720   0.26280   0.13210   Biso      1.000     C          -0.027534           
         C53       1.0000    0.21060   0.03510   0.42403   Biso      1.000     C          0.607336  
         C54       1.0000    0.69430   0.82510   0.09330   Biso      1.000     C          0.086476  
         C55       1.0000    0.06730   0.90260   0.81677   Biso      1.000     C          0.109859  
         C56       1.0000    0.93640   0.12640   0.78960   Biso      1.000     C          -0.137362           
         C57       1.0000    0.33830   0.10010   0.18033   Biso      1.000     C          -0.166697           
         C58       1.0000    0.02180   0.43690   0.20663   Biso      1.000     C          -0.138188           
         C59       1.0000    0.46300   0.42430   0.38957   Biso      1.000     C          -0.167117           
         C60       1.0000    0.63020   0.67250   0.90570   Biso      1.000     C          -0.132328           
         C61       1.0000    0.96490   0.17550   0.09070   Biso      1.000     C          0.608024  
         C62       1.0000    0.93270   0.83530   0.51657   Biso      1.000     C          0.111174  
         C63       1.0000    0.30770   0.03000   0.05693   Biso      1.000     C          0.376938  
         C64       1.0000    0.56310   0.58490   0.87330   Biso      1.000     C          -0.137464           
         C65       1.0000    0.78760   0.72000   0.45417   Biso      1.000     C          0.048284  
         C66       1.0000    0.82510   0.69430   0.57337   Biso      1.000     C          0.086938  
         C67       1.0000    0.03000   0.30770   0.60973   Biso      1.000     C          0.377631  
         C68       1.0000    0.17490   0.86920   0.75997   Biso      1.000     C          0.087193  
         C69       1.0000    0.71440   0.73720   0.86790   Biso      1.000     C          -0.027534           
         C70       1.0000    0.62570   0.96360   0.94557   Biso      1.000     C          0.090707  
         C71       1.0000    0.19000   0.06360   0.12293   Biso      1.000     C          -0.151539           
         C72       1.0000    0.86920   0.17490   0.90670   Biso      1.000     C          0.086475  
         C73       1.0000    0.72000   0.78760   0.21250   Biso      1.000     C          0.048868  
         C74       1.0000    0.48830   0.48830   0.33333   Biso      1.000     C          0.057369  
         C75       1.0000    0.06760   0.28000   0.54583   Biso      1.000     C          0.048284  
         C76       1.0000    0.00000   0.51170   0.66667   Biso      1.000     C          0.057371  
         C77       1.0000    0.81000   0.87360   0.21040   Biso      1.000     C          -0.137364           
         C78       1.0000    0.02280   0.28560   0.20123   Biso      1.000     C          -0.027757           
         H1        1.0000    0.90280   0.00820   0.85000   Biso      1.000     H          0.108449  
         H2        1.0000    0.06870   0.38080   0.28523   Biso      1.000     H          0.115412  
         H3        1.0000    0.10540   0.09720   0.18333   Biso      1.000     H          0.107635  
         H4        1.0000    0.00820   0.90280   0.81667   Biso      1.000     H          0.107634  
         H5        1.0000    0.14700   0.03850   0.08403   Biso      1.000     H          0.152486  
         H6        1.0000    0.19290   0.84740   0.71917   Biso      1.000     H          0.095506  
         H7        1.0000    0.93800   0.64240   0.76030   Biso      1.000     H          0.107751  
         H8        1.0000    0.96150   0.10850   0.75070   Biso      1.000     H          0.137926  
         H9        1.0000    0.68790   0.61920   0.71477   Biso      1.000     H          0.115412  
         H10       1.0000    0.49350   0.03330   0.43583   Biso      1.000     H          0.112631  
         H11       1.0000    0.96670   0.46020   0.10250   Biso      1.000     H          0.110074  
         H12       1.0000    0.65450   0.80710   0.05250   Biso      1.000     H          0.096148  
         H13       1.0000    0.61920   0.68790   0.95190   Biso      1.000     H          0.115814  
         H14       1.0000    0.09720   0.10540   0.48333   Biso      1.000     H          0.107384  
         H15       1.0000    0.93390   0.49490   0.76210   Biso      1.000     H          0.132096  
         H16       1.0000    0.29560   0.35760   0.23970   Biso      1.000     H          0.107751  
         H17       1.0000    0.50650   0.53980   0.89750   Biso      1.000     H          0.110077  
         H18       1.0000    0.06610   0.56100   0.57123   Biso      1.000     H          0.132794  
         H19       1.0000    0.99180   0.89460   0.51667   Biso      1.000     H          0.107383  
         H20       1.0000    0.46020   0.96670   0.56417   Biso      1.000     H          0.11263   
         H21       1.0000    0.70350   0.60160   0.51477   Biso      1.000     H          0.13042   
         H22       1.0000    0.93130   0.31210   0.04810   Biso      1.000     H          0.115814  
         H23       1.0000    0.34550   0.15260   0.28083   Biso      1.000     H          0.095507  
         H24       1.0000    0.31210   0.93130   0.61857   Biso      1.000     H          0.11575   
         H25       1.0000    0.15260   0.34550   0.38583   Biso      1.000     H          0.096131  
         H26       1.0000    0.56100   0.06610   0.09543   Biso      1.000     H          0.132047  
         H27       1.0000    0.39840   0.10190   0.18143   Biso      1.000     H          0.130839  
         H28       1.0000    0.43900   0.50510   0.23790   Biso      1.000     H          0.132095  
         H29       1.0000    0.89810   0.29650   0.84810   Biso      1.000     H          0.130496  
         H30       1.0000    0.70440   0.06200   0.09363   Biso      1.000     H          0.108124  
         H31       1.0000    0.89150   0.85300   0.41737   Biso      1.000     H          0.138587  
         H32       1.0000    0.03850   0.14700   0.58263   Biso      1.000     H          0.138588  
         H33       1.0000    0.49490   0.93390   0.90457   Biso      1.000     H          0.132046  
         H34       1.0000    0.64240   0.93800   0.90637   Biso      1.000     H          0.108124  
         H35       1.0000    0.06200   0.70440   0.57303   Biso      1.000     H          0.107031  
         H36       1.0000    0.84740   0.19290   0.94750   Biso      1.000     H          0.096148  
         H37       1.0000    0.03330   0.49350   0.23083   Biso      1.000     H          0.11033   
         H38       1.0000    0.29650   0.89810   0.81857   Biso      1.000     H          0.13084   
         H39       1.0000    0.50510   0.43900   0.42877   Biso      1.000     H          0.132793  
         H40       1.0000    0.60160   0.70350   0.15190   Biso      1.000     H          0.130498  
         H41       1.0000    0.38080   0.06870   0.38143   Biso      1.000     H          0.11575   
         H42       1.0000    0.85300   0.89150   0.24930   Biso      1.000     H          0.137926  
         H43       1.0000    0.89460   0.99180   0.15000   Biso      1.000     H          0.108449  
         H44       1.0000    0.35760   0.29560   0.42697   Biso      1.000     H          0.107031  
         H45       1.0000    0.10850   0.96150   0.91597   Biso      1.000     H          0.152486  
         H46       1.0000    0.80710   0.65450   0.61417   Biso      1.000     H          0.09613   
         H47       1.0000    0.53980   0.50650   0.76917   Biso      1.000     H          0.110332  
         H48       1.0000    0.10190   0.39840   0.48523   Biso      1.000     H          0.13042   
         N1        1.0000    0.77850   0.90870   0.09212   Biso      1.000     N          -0.191369           
         N2        1.0000    0.75340   0.75340   0.33333   Biso      1.000     N          -0.379464           
         N3        1.0000    0.39530   0.03450   0.05893   Biso      1.000     N          -0.391644           
         N4        1.0000    0.60470   0.63920   0.27440   Biso      1.000     N          -0.39238  
         N5        1.0000    0.68880   0.00000   0.00000   Biso      1.000     N          -0.173402           
         N6        1.0000    0.00000   0.68880   0.66667   Biso      1.000     N          -0.173655           
         N7        1.0000    0.36080   0.96550   0.94107   Biso      1.000     N          -0.391643           
         N8        1.0000    0.86980   0.09130   0.90788   Biso      1.000     N          -0.191369           
         N9        1.0000    0.90870   0.77850   0.57455   Biso      1.000     N          -0.192079           
         N10       1.0000    0.22150   0.13020   0.24121   Biso      1.000     N          -0.190947           
         N11       1.0000    0.09130   0.86980   0.75879   Biso      1.000     N          -0.190948           
         N12       1.0000    0.24660   0.00000   0.00000   Biso      1.000     N          -0.381868           
         N13       1.0000    0.03450   0.39530   0.60773   Biso      1.000     N          -0.392728           
         N14       1.0000    0.00000   0.24660   0.66667   Biso      1.000     N          -0.379464           
         N15       1.0000    0.31120   0.31120   0.33333   Biso      1.000     N          -0.173653           
         N16       1.0000    0.63920   0.60470   0.39227   Biso      1.000     N          -0.392728           
         N17       1.0000    0.13020   0.22150   0.42545   Biso      1.000     N          -0.192079           
         N18       1.0000    0.96550   0.36080   0.72560   Biso      1.000     N          -0.39238  
         Ni1       1.0000    0.82243   0.00000   0.00000   Biso      1.000     Ni          0.68393   
         Ni2       1.0000    0.00000   0.82243   0.66667   Biso      1.000     Ni          0.683183  
         Ni3       1.0000    0.17757   0.17757   0.33333   Biso      1.000     Ni          0.683183  
         O1        1.0000    0.84220   0.87270   0.75337   Biso      1.000     O          -0.581005           
         O2        1.0000    0.15780   0.03050   0.57997   Biso      1.000     O          -0.581174           
         O3        1.0000    0.12520   0.88030   0.60293   Biso      1.000     O          -0.607513           
         O4        1.0000    0.12730   0.96950   0.42003   Biso      1.000     O          -0.581172           
         O5        1.0000    0.24490   0.11970   0.39707   Biso      1.000     O          -0.607511           
         O6        1.0000    0.87480   0.75510   0.73041   Biso      1.000     O          -0.607382           
         O7        1.0000    0.96950   0.12730   0.24663   Biso      1.000     O          -0.581004           
         O8        1.0000    0.03050   0.15780   0.08670   Biso      1.000     O          -0.581152           
         O9        1.0000    0.75510   0.87480   0.93626   Biso      1.000     O          -0.608033           
         O10       1.0000    0.87270   0.84220   0.91330   Biso      1.000     O          -0.58115  
         O11       1.0000    0.11970   0.24490   0.26959   Biso      1.000     O          -0.607379           
         O12       1.0000    0.88030   0.12520   0.06374   Biso      1.000     O          -0.608033 