
##########################################################################
#               Crystallographic Information Format file
#               Produced by PyCifRW module
#
#  This is a CIF file.  CIF has been adopted by the International
#  Union of Crystallography as the standard for data archiving and
#  transmission.
#
#  For information on this file format, follow the CIF links at
#  http://www.iucr.org
##########################################################################

data_image0

_cell_length_a                          10.0476
_cell_length_b                          14.9869
_cell_length_c                          22.2426
_cell_angle_alpha                       90
_cell_angle_beta                        90
_cell_angle_gamma                       107.586
_symmetry_space_group_name_H-M          'P 1'
_symmetry_int_tables_number             1
loop_
  _symmetry_equiv_pos_as_xyz
         'x, y, z' 
loop_
  _atom_site_label
  _atom_site_occupancy
  _atom_site_fract_x
  _atom_site_fract_y
  _atom_site_fract_z
  _atom_site_thermal_displace_type
  _atom_site_B_iso_or_equiv
  _atom_site_type_symbol
  _atom_site_charge
         C1        1.0000    0.47430   0.16400   0.28090   Biso      1.000     C          0.517891  
         C2        1.0000    0.14680   0.29020   0.45840   Biso      1.000     C          -0.409012           
         C3        1.0000    0.50960   0.50090   0.53510   Biso      1.000     C          0.541786  
         C4        1.0000    0.54430   0.05200   0.49890   Biso      1.000     C          0.518582  
         C5        1.0000    0.80190   0.08390   0.65020   Biso      1.000     C          0.5317109999999999  
         C6        1.0000    0.75190   0.16960   0.66190   Biso      1.000     C          0.503003  
         C7        1.0000    0.54740   0.91930   0.76360   Biso      1.000     C          0.5247229999999999  
         C8        1.0000    0.52570   0.83600   0.71910   Biso      1.000     C          0.517891  
         C9        1.0000    0.26010   0.11810   0.61250   Biso      1.000     C          0.523994  
         C10       1.0000    0.97820   0.13340   0.45340   Biso      1.000     C          -0.331569           
         C11       1.0000    0.28160   0.12930   0.68120   Biso      1.000     C          0.499296  
         C12       1.0000    0.52180   0.36660   0.95340   Biso      1.000     C          -0.331569           
         C13       1.0000    0.35320   0.20980   0.95840   Biso      1.000     C          -0.409012           
         C14       1.0000    0.99040   0.99910   0.03510   Biso      1.000     C          0.541786  
         C15       1.0000    0.95570   0.44800   0.99890   Biso      1.000     C          0.518582  
         C16       1.0000    0.69810   0.41610   0.15020   Biso      1.000     C          0.5317109999999999  
         C17       1.0000    0.74810   0.33040   0.16190   Biso      1.000     C          0.503003  
         C18       1.0000    0.95260   0.58070   0.26360   Biso      1.000     C          0.5247229999999999  
         C19       1.0000    0.97430   0.66400   0.21910   Biso      1.000     C          0.517891  
         C20       1.0000    0.27190   0.34740   0.93980   Biso      1.000     C          -0.329305           
         C21       1.0000    0.22810   0.15260   0.43980   Biso      1.000     C          -0.329304           
         C22       1.0000    0.78160   0.62930   0.81880   Biso      1.000     C          0.49929700000000005           
         C23       1.0000    0.76010   0.61810   0.88750   Biso      1.000     C          0.523994  
         C24       1.0000    0.77190   0.84740   0.56020   Biso      1.000     C          -0.329305           
         C25       1.0000    0.02180   0.86660   0.54660   Biso      1.000     C          -0.331569           
         C26       1.0000    0.85320   0.70980   0.54160   Biso      1.000     C          -0.409012           
         C27       1.0000    0.49040   0.49910   0.46490   Biso      1.000     C          0.541786  
         C28       1.0000    0.45570   0.94800   0.50110   Biso      1.000     C          0.518583  
         C29       1.0000    0.19810   0.91610   0.34980   Biso      1.000     C          0.531712  
         C30       1.0000    0.24810   0.83040   0.33810   Biso      1.000     C          0.5030020000000001  
         C31       1.0000    0.45260   0.08070   0.23640   Biso      1.000     C          0.5247229999999999  
         C32       1.0000    0.73990   0.88190   0.38750   Biso      1.000     C          0.523994  
         C33       1.0000    0.71840   0.87070   0.31880   Biso      1.000     C          0.499296  
         C34       1.0000    0.72810   0.65260   0.06020   Biso      1.000     C          -0.329305           
         C35       1.0000    0.47820   0.63340   0.04660   Biso      1.000     C          -0.33157  
         C36       1.0000    0.64680   0.79020   0.04160   Biso      1.000     C          -0.409012           
         C37       1.0000    0.00960   0.00090   0.96490   Biso      1.000     C          0.541786  
         C38       1.0000    0.04430   0.55200   0.00110   Biso      1.000     C          0.518583  
         C39       1.0000    0.30190   0.58390   0.84980   Biso      1.000     C          0.5317109999999999  
         C40       1.0000    0.25190   0.66960   0.83810   Biso      1.000     C          0.503003  
         C41       1.0000    0.04740   0.41930   0.73640   Biso      1.000     C          0.5247229999999999  
         C42       1.0000    0.02570   0.33600   0.78090   Biso      1.000     C          0.517891  
         C43       1.0000    0.23990   0.38190   0.11250   Biso      1.000     C          0.523994  
         C44       1.0000    0.21840   0.37070   0.18120   Biso      1.000     C          0.49929700000000005           
         Er1       1.0000    0.02620   0.49739   0.14140   Biso      1.000     Er          1.984459  
         Er2       1.0000    0.58284   0.75316   0.84379   Biso      1.000     Er          2.030184  
         Er3       1.0000    0.91716   0.74684   0.34379   Biso      1.000     Er          2.030183  
         Er4       1.0000    0.52620   0.99739   0.35860   Biso      1.000     Er          1.98446   
         Er5       1.0000    0.75843   0.09258   0.98616   Biso      1.000     Er          2.258841  
         Er6       1.0000    0.97380   0.50261   0.85860   Biso      1.000     Er          1.98446   
         Er7       1.0000    0.25843   0.59258   0.51384   Biso      1.000     Er          2.25884   
         Er8       1.0000    0.74157   0.40742   0.48616   Biso      1.000     Er          2.25884   
         Er9       1.0000    0.47380   0.00261   0.64140   Biso      1.000     Er          1.98446   
         Er10      1.0000    0.24157   0.90742   0.01384   Biso      1.000     Er          2.25884   
         Er11      1.0000    0.41716   0.24684   0.15621   Biso      1.000     Er          2.030184  
         Er12      1.0000    0.08284   0.25316   0.65621   Biso      1.000     Er          2.030184  
         H1        1.0000    0.75420   0.67790   0.53720   Biso      1.000     H          0.166959  
         H2        1.0000    0.12990   0.18270   0.51050   Biso      1.000     H          0.254391  
         H3        1.0000    0.37010   0.31730   0.01050   Biso      1.000     H          0.254392  
         H4        1.0000    0.25420   0.17790   0.96280   Biso      1.000     H          0.166959  
         H5        1.0000    0.37870   0.20180   0.91710   Biso      1.000     H          0.184594  
         H6        1.0000    0.58810   0.34210   0.97320   Biso      1.000     H          0.173832  
         H7        1.0000    0.53320   0.36370   0.91060   Biso      1.000     H          0.170174  
         H8        1.0000    0.53720   0.43050   0.96530   Biso      1.000     H          0.16883199999999998           
         H9        1.0000    0.17990   0.31010   0.95140   Biso      1.000     H          0.158878  
         H10       1.0000    0.28610   0.41120   0.95180   Biso      1.000     H          0.1768    
         H11       1.0000    0.28160   0.34450   0.89700   Biso      1.000     H          0.179007  
         H12       1.0000    0.24580   0.32210   0.46280   Biso      1.000     H          0.166959  
         H13       1.0000    0.87870   0.70180   0.58290   Biso      1.000     H          0.184595  
         H14       1.0000    0.91190   0.15790   0.47320   Biso      1.000     H          0.173832  
         H15       1.0000    0.08810   0.84210   0.52680   Biso      1.000     H          0.173832  
         H16       1.0000    0.12130   0.29820   0.41710   Biso      1.000     H          0.184595  
         H17       1.0000    0.03320   0.86370   0.58940   Biso      1.000     H          0.170174  
         H18       1.0000    0.03720   0.93050   0.53470   Biso      1.000     H          0.16883199999999998           
         H19       1.0000    0.67990   0.81010   0.54860   Biso      1.000     H          0.158878  
         H20       1.0000    0.78610   0.91120   0.54820   Biso      1.000     H          0.1768    
         H21       1.0000    0.87010   0.81730   0.48950   Biso      1.000     H          0.254392  
         H22       1.0000    0.71840   0.65550   0.10300   Biso      1.000     H          0.179006  
         H23       1.0000    0.71390   0.58880   0.04820   Biso      1.000     H          0.1768    
         H24       1.0000    0.82010   0.68990   0.04860   Biso      1.000     H          0.158878  
         H25       1.0000    0.46280   0.56950   0.03470   Biso      1.000     H          0.16883199999999998           
         H26       1.0000    0.78160   0.84450   0.60300   Biso      1.000     H          0.179007  
         H27       1.0000    0.62990   0.68270   0.98950   Biso      1.000     H          0.254391  
         H28       1.0000    0.96680   0.13630   0.41060   Biso      1.000     H          0.170174  
         H29       1.0000    0.46680   0.63630   0.08940   Biso      1.000     H          0.170174  
         H30       1.0000    0.41190   0.65790   0.02680   Biso      1.000     H          0.173832  
         H31       1.0000    0.62130   0.79820   0.08290   Biso      1.000     H          0.184595  
         H32       1.0000    0.74580   0.82210   0.03720   Biso      1.000     H          0.166959  
         H33       1.0000    0.32010   0.18990   0.45140   Biso      1.000     H          0.158877  
         H34       1.0000    0.96280   0.06950   0.46530   Biso      1.000     H          0.16883199999999998           
         H35       1.0000    0.21840   0.15550   0.39700   Biso      1.000     H          0.179007  
         H36       1.0000    0.21390   0.08880   0.45180   Biso      1.000     H          0.1768    
         N1        1.0000    0.87890   0.81050   0.52980   Biso      1.000     N          0.12232   
         N2        1.0000    0.62110   0.68950   0.02980   Biso      1.000     N          0.122322  
         N3        1.0000    0.37890   0.31050   0.97020   Biso      1.000     N          0.12232   
         N4        1.0000    0.12110   0.18950   0.47020   Biso      1.000     N          0.12232   
         O1        1.0000    0.08210   0.59090   0.95200   Biso      1.000     O          -0.604176           
         O2        1.0000    0.34320   0.74720   0.83270   Biso      1.000     O          -0.610379           
         O3        1.0000    0.07050   0.58810   0.05280   Biso      1.000     O          -0.669566           
         O4        1.0000    0.93310   0.03700   0.93560   Biso      1.000     O          -0.6286149999999999           
         O5        1.0000    0.21310   0.50890   0.86040   Biso      1.000     O          -0.584888           
         O6        1.0000    0.12210   0.65500   0.83410   Biso      1.000     O          -0.582432           
         O7        1.0000    0.43270   0.59920   0.84760   Biso      1.000     O          -0.632726           
         O8        1.0000    0.85810   0.58560   0.79610   Biso      1.000     O          -0.571145           
         O9        1.0000    0.08000   0.40410   0.68300   Biso      1.000     O          -0.681883           
         O10       1.0000    0.98920   0.34930   0.83290   Biso      1.000     O          -0.635921           
         O11       1.0000    0.72130   0.67950   0.79160   Biso      1.000     O          -0.606901           
         O12       1.0000    0.09560   0.96440   0.94510   Biso      1.000     O          -0.6177199999999999           
         O13       1.0000    0.04820   0.26340   0.76150   Biso      1.000     O          -0.600668           
         O14       1.0000    0.68660   0.66490   0.90970   Biso      1.000     O          -0.656658           
         O15       1.0000    0.03160   0.28960   0.56570   Biso      1.000     O          -0.861866           
         O16       1.0000    0.81400   0.56470   0.91340   Biso      1.000     O          -0.600132           
         O17       1.0000    0.02990   0.49240   0.75560   Biso      1.000     O          -0.564873           
         O18       1.0000    0.64340   0.94380   0.98400   Biso      1.000     O          -0.956809           
         O19       1.0000    0.15680   0.75280   0.33270   Biso      1.000     O          -0.610379           
         O20       1.0000    0.53160   0.78960   0.93430   Biso      1.000     O          -0.861865           
         O21       1.0000    0.85660   0.55620   0.48400   Biso      1.000     O          -0.956809           
         O22       1.0000    0.40440   0.53560   0.44510   Biso      1.000     O          -0.6177199999999999           
         O23       1.0000    0.56690   0.46300   0.43560   Biso      1.000     O          -0.6286149999999999           
         O24       1.0000    0.42950   0.91190   0.55280   Biso      1.000     O          -0.669566           
         O25       1.0000    0.41790   0.90910   0.45200   Biso      1.000     O          -0.604176           
         O26       1.0000    0.91130   0.33910   0.47990   Biso      1.000     O          -0.9524879999999999           
         O27       1.0000    0.37790   0.84500   0.33410   Biso      1.000     O          -0.582432           
         O28       1.0000    0.28690   0.99110   0.36040   Biso      1.000     O          -0.584888           
         O29       1.0000    0.06730   0.90080   0.34760   Biso      1.000     O          -0.632726           
         O30       1.0000    0.47010   0.00760   0.25560   Biso      1.000     O          -0.564873           
         O31       1.0000    0.42000   0.09590   0.18300   Biso      1.000     O          -0.681883           
         O32       1.0000    0.51080   0.15070   0.33290   Biso      1.000     O          -0.635921           
         O33       1.0000    0.45180   0.23660   0.26150   Biso      1.000     O          -0.600668           
         O34       1.0000    0.81340   0.83510   0.40970   Biso      1.000     O          -0.656659           
         O35       1.0000    0.68600   0.93530   0.41340   Biso      1.000     O          -0.600132           
         O36       1.0000    0.64190   0.91440   0.29610   Biso      1.000     O          -0.571146           
         O37       1.0000    0.77870   0.82050   0.29160   Biso      1.000     O          -0.6069   
         O38       1.0000    0.41130   0.83910   0.02010   Biso      1.000     O          -0.9524870000000001           
         O39       1.0000    0.14340   0.44380   0.51600   Biso      1.000     O          -0.956809           
         O40       1.0000    0.65680   0.25280   0.16730   Biso      1.000     O          -0.610379           
         O41       1.0000    0.43310   0.53700   0.56440   Biso      1.000     O          -0.6286149999999999           
         O42       1.0000    0.92950   0.41190   0.94720   Biso      1.000     O          -0.669566           
         O43       1.0000    0.91790   0.40910   0.04800   Biso      1.000     O          -0.604176           
         O44       1.0000    0.87790   0.34500   0.16590   Biso      1.000     O          -0.582432           
         O45       1.0000    0.78690   0.49110   0.13960   Biso      1.000     O          -0.584888           
         O46       1.0000    0.56730   0.40080   0.15240   Biso      1.000     O          -0.632726           
         O47       1.0000    0.97010   0.50760   0.24440   Biso      1.000     O          -0.564873           
         O48       1.0000    0.59560   0.46440   0.55490   Biso      1.000     O          -0.6177199999999999           
         O49       1.0000    0.92000   0.59590   0.31700   Biso      1.000     O          -0.681883           
         O50       1.0000    0.95180   0.73660   0.23850   Biso      1.000     O          -0.600668           
         O51       1.0000    0.31340   0.33510   0.09030   Biso      1.000     O          -0.656659           
         O52       1.0000    0.18600   0.43530   0.08660   Biso      1.000     O          -0.600132           
         O53       1.0000    0.14190   0.41440   0.20390   Biso      1.000     O          -0.571146           
         O54       1.0000    0.27870   0.32050   0.20840   Biso      1.000     O          -0.606901           
         O55       1.0000    0.08870   0.66090   0.52010   Biso      1.000     O          -0.9524879999999999           
         O56       1.0000    0.01080   0.65070   0.16710   Biso      1.000     O          -0.635921           
         O57       1.0000    0.90440   0.03560   0.05490   Biso      1.000     O          -0.6177199999999999           
         O58       1.0000    0.06690   0.96300   0.06440   Biso      1.000     O          -0.6286149999999999           
         O59       1.0000    0.58870   0.16090   0.97990   Biso      1.000     O          -0.9524879999999999           
         O60       1.0000    0.57050   0.08810   0.44720   Biso      1.000     O          -0.669566           
         O61       1.0000    0.58210   0.09090   0.54800   Biso      1.000     O          -0.6041770000000001           
         O62       1.0000    0.62210   0.15500   0.66590   Biso      1.000     O          -0.582432           
         O63       1.0000    0.84320   0.24720   0.66730   Biso      1.000     O          -0.610379           
         O64       1.0000    0.71310   0.00890   0.63960   Biso      1.000     O          -0.584888           
         O65       1.0000    0.35660   0.05620   0.01600   Biso      1.000     O          -0.956809           
         O66       1.0000    0.52990   0.99240   0.74440   Biso      1.000     O          -0.564873           
         O67       1.0000    0.93270   0.09920   0.65240   Biso      1.000     O          -0.632726           
         O68       1.0000    0.48920   0.84930   0.66710   Biso      1.000     O          -0.635921           
         O69       1.0000    0.54820   0.76340   0.73850   Biso      1.000     O          -0.600668           
         O70       1.0000    0.18660   0.16490   0.59030   Biso      1.000     O          -0.656659           
         O71       1.0000    0.31400   0.06470   0.58660   Biso      1.000     O          -0.600132           
         O72       1.0000    0.35810   0.08560   0.70390   Biso      1.000     O          -0.571145           
         O73       1.0000    0.22130   0.17950   0.70840   Biso      1.000     O          -0.6069   
         O74       1.0000    0.46840   0.21040   0.06570   Biso      1.000     O          -0.861866           
         O75       1.0000    0.58000   0.90410   0.81700   Biso      1.000     O          -0.681883           
         O76       1.0000    0.96840   0.71040   0.43430   Biso      1.000     O          -0.861865           
         P1        1.0000    0.45060   0.15444   0.00861   Biso      1.000     P          1.499473  
         P2        1.0000    0.04940   0.34556   0.50861   Biso      1.000     P          1.499472  
         P3        1.0000    0.54940   0.84556   0.99139   Biso      1.000     P          1.499472  
         P4        1.0000    0.95060   0.65444   0.49139   Biso      1.000     P          1.499472 