
##########################################################################
#               Crystallographic Information Format file
#               Produced by PyCifRW module
#
#  This is a CIF file.  CIF has been adopted by the International
#  Union of Crystallography as the standard for data archiving and
#  transmission.
#
#  For information on this file format, follow the CIF links at
#  http://www.iucr.org
##########################################################################

data_image0

_cell_length_a                          10.2481
_cell_length_b                          15.0697
_cell_length_c                          22.391
_cell_angle_alpha                       90
_cell_angle_beta                        90
_cell_angle_gamma                       108.02
_symmetry_space_group_name_H-M          'P 1'
_symmetry_int_tables_number             1
loop_
  _symmetry_equiv_pos_as_xyz
         'x, y, z' 
loop_
  _atom_site_label
  _atom_site_occupancy
  _atom_site_fract_x
  _atom_site_fract_y
  _atom_site_fract_z
  _atom_site_thermal_displace_type
  _atom_site_B_iso_or_equiv
  _atom_site_type_symbol
  _atom_site_charge
         C1        1.0000    0.48180   0.16760   0.27990   Biso      1.000     C          0.515748  
         C2        1.0000    0.13610   0.28610   0.45640   Biso      1.000     C          -0.41173699999999996          
         C3        1.0000    0.50670   0.49840   0.53470   Biso      1.000     C          0.531879  
         C4        1.0000    0.54270   0.05260   0.50030   Biso      1.000     C          0.517608  
         C5        1.0000    0.79310   0.07850   0.65060   Biso      1.000     C          0.528859  
         C6        1.0000    0.74830   0.16650   0.66260   Biso      1.000     C          0.49467   
         C7        1.0000    0.54160   0.91560   0.76430   Biso      1.000     C          0.527728  
         C8        1.0000    0.51820   0.83240   0.72010   Biso      1.000     C          0.515748  
         C9        1.0000    0.25220   0.11400   0.61230   Biso      1.000     C          0.516687  
         C10       1.0000    0.98000   0.13490   0.45330   Biso      1.000     C          -0.331302           
         C11       1.0000    0.27470   0.12560   0.68020   Biso      1.000     C          0.50244   
         C12       1.0000    0.52000   0.36510   0.95330   Biso      1.000     C          -0.331302           
         C13       1.0000    0.36390   0.21390   0.95640   Biso      1.000     C          -0.41173699999999996          
         C14       1.0000    0.99330   0.00160   0.03470   Biso      1.000     C          0.531879  
         C15       1.0000    0.95730   0.44740   0.00030   Biso      1.000     C          0.517608  
         C16       1.0000    0.70690   0.42150   0.15060   Biso      1.000     C          0.528859  
         C17       1.0000    0.75170   0.33350   0.16260   Biso      1.000     C          0.49467   
         C18       1.0000    0.95840   0.58440   0.26430   Biso      1.000     C          0.527728  
         C19       1.0000    0.98180   0.66760   0.22010   Biso      1.000     C          0.515748  
         C20       1.0000    0.28200   0.34990   0.93860   Biso      1.000     C          -0.33065100000000003          
         C21       1.0000    0.21800   0.15010   0.43860   Biso      1.000     C          -0.33065100000000003          
         C22       1.0000    0.77470   0.62560   0.81980   Biso      1.000     C          0.50244   
         C23       1.0000    0.75220   0.61400   0.88770   Biso      1.000     C          0.516687  
         C24       1.0000    0.78200   0.84990   0.56140   Biso      1.000     C          -0.330652           
         C25       1.0000    0.02000   0.86510   0.54670   Biso      1.000     C          -0.331302           
         C26       1.0000    0.86390   0.71390   0.54360   Biso      1.000     C          -0.41173699999999996          
         C27       1.0000    0.49330   0.50160   0.46530   Biso      1.000     C          0.531879  
         C28       1.0000    0.45730   0.94740   0.49970   Biso      1.000     C          0.517609  
         C29       1.0000    0.20690   0.92150   0.34940   Biso      1.000     C          0.528859  
         C30       1.0000    0.25170   0.83350   0.33740   Biso      1.000     C          0.49467   
         C31       1.0000    0.45840   0.08440   0.23570   Biso      1.000     C          0.527728  
         C32       1.0000    0.74780   0.88600   0.38770   Biso      1.000     C          0.516687  
         C33       1.0000    0.72530   0.87440   0.31980   Biso      1.000     C          0.50244   
         C34       1.0000    0.71800   0.65010   0.06140   Biso      1.000     C          -0.33065100000000003          
         C35       1.0000    0.48000   0.63490   0.04670   Biso      1.000     C          -0.331302           
         C36       1.0000    0.63610   0.78610   0.04360   Biso      1.000     C          -0.41173699999999996          
         C37       1.0000    0.00670   0.99840   0.96530   Biso      1.000     C          0.531879  
         C38       1.0000    0.04270   0.55260   0.99970   Biso      1.000     C          0.517609  
         C39       1.0000    0.29310   0.57850   0.84940   Biso      1.000     C          0.528859  
         C40       1.0000    0.24830   0.66650   0.83740   Biso      1.000     C          0.49467   
         C41       1.0000    0.04160   0.41560   0.73570   Biso      1.000     C          0.527728  
         C42       1.0000    0.01820   0.33240   0.77990   Biso      1.000     C          0.515748  
         C43       1.0000    0.24780   0.38600   0.11230   Biso      1.000     C          0.516687  
         C44       1.0000    0.22530   0.37440   0.18020   Biso      1.000     C          0.50244   
         Gd1       1.0000    0.03392   0.50113   0.14153   Biso      1.000     Gd          1.9619360000000001  
         Gd2       1.0000    0.57775   0.74939   0.84497   Biso      1.000     Gd          2.00115   
         Gd3       1.0000    0.92225   0.75061   0.34497   Biso      1.000     Gd          2.00115   
         Gd4       1.0000    0.53392   0.00113   0.35847   Biso      1.000     Gd          1.9619360000000001  
         Gd5       1.0000    0.75722   0.09002   0.98659   Biso      1.000     Gd          2.204509  
         Gd6       1.0000    0.96608   0.49887   0.85847   Biso      1.000     Gd          1.9619360000000001  
         Gd7       1.0000    0.25722   0.59002   0.51341   Biso      1.000     Gd          2.204509  
         Gd8       1.0000    0.74278   0.40998   0.48659   Biso      1.000     Gd          2.204509  
         Gd9       1.0000    0.46608   0.99887   0.64153   Biso      1.000     Gd          1.9619369999999998  
         Gd10      1.0000    0.24278   0.90998   0.01341   Biso      1.000     Gd          2.204509  
         Gd11      1.0000    0.42225   0.25061   0.15503   Biso      1.000     Gd          2.00115   
         Gd12      1.0000    0.07775   0.24939   0.65503   Biso      1.000     Gd          2.00115   
         H1        1.0000    0.76810   0.67650   0.54420   Biso      1.000     H          0.16203   
         H2        1.0000    0.14130   0.18710   0.50950   Biso      1.000     H          0.254771  
         H3        1.0000    0.35870   0.31290   0.00950   Biso      1.000     H          0.254771  
         H4        1.0000    0.26810   0.17650   0.95580   Biso      1.000     H          0.16203   
         H5        1.0000    0.39990   0.21250   0.91650   Biso      1.000     H          0.176111  
         H6        1.0000    0.58280   0.33940   0.97350   Biso      1.000     H          0.174324  
         H7        1.0000    0.53300   0.36270   0.91100   Biso      1.000     H          0.17264000000000002           
         H8        1.0000    0.53720   0.42880   0.96550   Biso      1.000     H          0.169882  
         H9        1.0000    0.18780   0.31640   0.94780   Biso      1.000     H          0.158978  
         H10       1.0000    0.30180   0.41370   0.95090   Biso      1.000     H          0.17516900000000002           
         H11       1.0000    0.29600   0.34750   0.89630   Biso      1.000     H          0.174525  
         H12       1.0000    0.23190   0.32350   0.45580   Biso      1.000     H          0.16203   
         H13       1.0000    0.89990   0.71250   0.58350   Biso      1.000     H          0.176111  
         H14       1.0000    0.91720   0.16060   0.47350   Biso      1.000     H          0.174324  
         H15       1.0000    0.08280   0.83940   0.52650   Biso      1.000     H          0.174324  
         H16       1.0000    0.10010   0.28750   0.41650   Biso      1.000     H          0.176111  
         H17       1.0000    0.03300   0.86270   0.58900   Biso      1.000     H          0.17264000000000002           
         H18       1.0000    0.03720   0.92880   0.53450   Biso      1.000     H          0.169882  
         H19       1.0000    0.68780   0.81640   0.55220   Biso      1.000     H          0.158978  
         H20       1.0000    0.80180   0.91370   0.54910   Biso      1.000     H          0.17516900000000002           
         H21       1.0000    0.85870   0.81290   0.49050   Biso      1.000     H          0.254771  
         H22       1.0000    0.70400   0.65250   0.10370   Biso      1.000     H          0.174524  
         H23       1.0000    0.69820   0.58630   0.04910   Biso      1.000     H          0.17516900000000002           
         H24       1.0000    0.81220   0.68360   0.05220   Biso      1.000     H          0.158977  
         H25       1.0000    0.46280   0.57120   0.03450   Biso      1.000     H          0.169882  
         H26       1.0000    0.79600   0.84750   0.60370   Biso      1.000     H          0.174525  
         H27       1.0000    0.64130   0.68710   0.99050   Biso      1.000     H          0.254771  
         H28       1.0000    0.96700   0.13730   0.41100   Biso      1.000     H          0.17264000000000002           
         H29       1.0000    0.46700   0.63730   0.08900   Biso      1.000     H          0.17264000000000002           
         H30       1.0000    0.41720   0.66060   0.02650   Biso      1.000     H          0.174324  
         H31       1.0000    0.60010   0.78750   0.08350   Biso      1.000     H          0.176112  
         H32       1.0000    0.73190   0.82350   0.04420   Biso      1.000     H          0.162029  
         H33       1.0000    0.31220   0.18360   0.44780   Biso      1.000     H          0.158978  
         H34       1.0000    0.96280   0.07120   0.46550   Biso      1.000     H          0.169881  
         H35       1.0000    0.20400   0.15250   0.39630   Biso      1.000     H          0.174525  
         H36       1.0000    0.19820   0.08630   0.45090   Biso      1.000     H          0.17516900000000002           
         N1        1.0000    0.87060   0.80790   0.53050   Biso      1.000     N          0.12897899999999998           
         N2        1.0000    0.62940   0.69210   0.03050   Biso      1.000     N          0.12897899999999998           
         N3        1.0000    0.37060   0.30790   0.96950   Biso      1.000     N          0.12897899999999998           
         N4        1.0000    0.12940   0.19210   0.46950   Biso      1.000     N          0.12897899999999998           
         O1        1.0000    0.07610   0.58960   0.95080   Biso      1.000     O          -0.5930479999999999           
         O2        1.0000    0.33950   0.74400   0.83360   Biso      1.000     O          -0.60225  
         O3        1.0000    0.07060   0.59140   0.05050   Biso      1.000     O          -0.672251           
         O4        1.0000    0.92790   0.03240   0.93540   Biso      1.000     O          -0.615518           
         O5        1.0000    0.20460   0.50410   0.85850   Biso      1.000     O          -0.5660229999999999           
         O6        1.0000    0.12020   0.65260   0.83230   Biso      1.000     O          -0.579503           
         O7        1.0000    0.42340   0.59450   0.84740   Biso      1.000     O          -0.640528           
         O8        1.0000    0.85110   0.58360   0.79700   Biso      1.000     O          -0.572116           
         O9        1.0000    0.07740   0.40210   0.68380   Biso      1.000     O          -0.670675           
         O10       1.0000    0.97870   0.34450   0.83130   Biso      1.000     O          -0.637487           
         O11       1.0000    0.71700   0.67510   0.79300   Biso      1.000     O          -0.595527           
         O12       1.0000    0.08980   0.96160   0.94520   Biso      1.000     O          -0.593467           
         O13       1.0000    0.04240   0.26130   0.76140   Biso      1.000     O          -0.593536           
         O14       1.0000    0.67950   0.65850   0.91060   Biso      1.000     O          -0.641788           
         O15       1.0000    0.02810   0.28530   0.56350   Biso      1.000     O          -0.861561           
         O16       1.0000    0.80710   0.56140   0.91380   Biso      1.000     O          -0.605425           
         O17       1.0000    0.01870   0.48670   0.75420   Biso      1.000     O          -0.5706859999999999           
         O18       1.0000    0.64230   0.93720   0.98470   Biso      1.000     O          -0.9372020000000001           
         O19       1.0000    0.16050   0.75600   0.33360   Biso      1.000     O          -0.60225  
         O20       1.0000    0.52810   0.78530   0.93650   Biso      1.000     O          -0.861561           
         O21       1.0000    0.85770   0.56280   0.48470   Biso      1.000     O          -0.9372020000000001           
         O22       1.0000    0.41020   0.53840   0.44520   Biso      1.000     O          -0.593467           
         O23       1.0000    0.57210   0.46760   0.43540   Biso      1.000     O          -0.615518           
         O24       1.0000    0.42940   0.90860   0.55050   Biso      1.000     O          -0.672251           
         O25       1.0000    0.42390   0.91040   0.45080   Biso      1.000     O          -0.5930479999999999           
         O26       1.0000    0.91030   0.33990   0.48040   Biso      1.000     O          -0.930141           
         O27       1.0000    0.37980   0.84740   0.33230   Biso      1.000     O          -0.579503           
         O28       1.0000    0.29540   0.99590   0.35850   Biso      1.000     O          -0.5660229999999999           
         O29       1.0000    0.07660   0.90550   0.34740   Biso      1.000     O          -0.640528           
         O30       1.0000    0.48130   0.01330   0.25420   Biso      1.000     O          -0.5706869999999999           
         O31       1.0000    0.42260   0.09790   0.18380   Biso      1.000     O          -0.670675           
         O32       1.0000    0.52130   0.15550   0.33130   Biso      1.000     O          -0.637487           
         O33       1.0000    0.45760   0.23870   0.26140   Biso      1.000     O          -0.593536           
         O34       1.0000    0.82050   0.84150   0.41060   Biso      1.000     O          -0.641788           
         O35       1.0000    0.69290   0.93860   0.41380   Biso      1.000     O          -0.605425           
         O36       1.0000    0.64890   0.91640   0.29700   Biso      1.000     O          -0.572116           
         O37       1.0000    0.78300   0.82490   0.29300   Biso      1.000     O          -0.595527           
         O38       1.0000    0.41030   0.83990   0.01960   Biso      1.000     O          -0.930141           
         O39       1.0000    0.14230   0.43720   0.51530   Biso      1.000     O          -0.9372020000000001           
         O40       1.0000    0.66050   0.25600   0.16640   Biso      1.000     O          -0.60225  
         O41       1.0000    0.42790   0.53240   0.56460   Biso      1.000     O          -0.615518           
         O42       1.0000    0.92940   0.40860   0.94950   Biso      1.000     O          -0.672251           
         O43       1.0000    0.92390   0.41040   0.04920   Biso      1.000     O          -0.5930479999999999           
         O44       1.0000    0.87980   0.34740   0.16770   Biso      1.000     O          -0.579503           
         O45       1.0000    0.79540   0.49590   0.14150   Biso      1.000     O          -0.5660229999999999           
         O46       1.0000    0.57660   0.40550   0.15260   Biso      1.000     O          -0.640528           
         O47       1.0000    0.98130   0.51330   0.24580   Biso      1.000     O          -0.5706859999999999           
         O48       1.0000    0.58980   0.46160   0.55480   Biso      1.000     O          -0.593467           
         O49       1.0000    0.92260   0.59790   0.31620   Biso      1.000     O          -0.670675           
         O50       1.0000    0.95760   0.73870   0.23860   Biso      1.000     O          -0.593536           
         O51       1.0000    0.32050   0.34150   0.08940   Biso      1.000     O          -0.641788           
         O52       1.0000    0.19290   0.43860   0.08620   Biso      1.000     O          -0.605425           
         O53       1.0000    0.14890   0.41640   0.20300   Biso      1.000     O          -0.572116           
         O54       1.0000    0.28300   0.32490   0.20700   Biso      1.000     O          -0.595527           
         O55       1.0000    0.08970   0.66010   0.51960   Biso      1.000     O          -0.930141           
         O56       1.0000    0.02130   0.65550   0.16870   Biso      1.000     O          -0.637487           
         O57       1.0000    0.91020   0.03840   0.05480   Biso      1.000     O          -0.593467           
         O58       1.0000    0.07210   0.96760   0.06460   Biso      1.000     O          -0.615518           
         O59       1.0000    0.58970   0.16010   0.98040   Biso      1.000     O          -0.930141           
         O60       1.0000    0.57060   0.09140   0.44950   Biso      1.000     O          -0.672251           
         O61       1.0000    0.57610   0.08960   0.54920   Biso      1.000     O          -0.5930479999999999           
         O62       1.0000    0.62020   0.15260   0.66770   Biso      1.000     O          -0.579503           
         O63       1.0000    0.83950   0.24400   0.66640   Biso      1.000     O          -0.60225  
         O64       1.0000    0.70460   0.00410   0.64150   Biso      1.000     O          -0.5660229999999999           
         O65       1.0000    0.35770   0.06280   0.01530   Biso      1.000     O          -0.9372020000000001           
         O66       1.0000    0.51870   0.98670   0.74580   Biso      1.000     O          -0.5706869999999999           
         O67       1.0000    0.92340   0.09450   0.65260   Biso      1.000     O          -0.640528           
         O68       1.0000    0.47870   0.84450   0.66870   Biso      1.000     O          -0.637487           
         O69       1.0000    0.54240   0.76130   0.73860   Biso      1.000     O          -0.593536           
         O70       1.0000    0.17950   0.15850   0.58940   Biso      1.000     O          -0.641788           
         O71       1.0000    0.30710   0.06140   0.58620   Biso      1.000     O          -0.605425           
         O72       1.0000    0.35110   0.08360   0.70300   Biso      1.000     O          -0.572116           
         O73       1.0000    0.21700   0.17510   0.70700   Biso      1.000     O          -0.595527           
         O74       1.0000    0.47190   0.21470   0.06350   Biso      1.000     O          -0.861561           
         O75       1.0000    0.57740   0.90210   0.81620   Biso      1.000     O          -0.670675           
         O76       1.0000    0.97190   0.71470   0.43650   Biso      1.000     O          -0.861561           
         P1        1.0000    0.45460   0.15792   0.00694   Biso      1.000     P          1.501803  
         P2        1.0000    0.04540   0.34208   0.50694   Biso      1.000     P          1.501803  
         P3        1.0000    0.54540   0.84208   0.99306   Biso      1.000     P          1.501803  
         P4        1.0000    0.95460   0.65792   0.49306   Biso      1.000     P          1.501803 