
##########################################################################
#               Crystallographic Information Format file
#               Produced by PyCifRW module
#
#  This is a CIF file.  CIF has been adopted by the International
#  Union of Crystallography as the standard for data archiving and
#  transmission.
#
#  For information on this file format, follow the CIF links at
#  http://www.iucr.org
##########################################################################

data_image0

_cell_length_a                          8.165
_cell_length_b                          8.215
_cell_length_c                          8.215
_cell_angle_alpha                       94.1831
_cell_angle_beta                        117.653
_cell_angle_gamma                       62.3472
_symmetry_space_group_name_H-M          'P 1'
_symmetry_int_tables_number             1
loop_
  _symmetry_equiv_pos_as_xyz
         'x, y, z' 
loop_
  _atom_site_label
  _atom_site_occupancy
  _atom_site_fract_x
  _atom_site_fract_y
  _atom_site_fract_z
  _atom_site_thermal_displace_type
  _atom_site_B_iso_or_equiv
  _atom_site_type_symbol
  _atom_site_charge
         C1        1.0000    0.94358   0.94903   0.50695   Biso      1.000     C          0.522158  
         C2        1.0000    0.55642   0.50695   0.94903   Biso      1.000     C          0.5221640000000001  
         C3        1.0000    0.05642   0.05097   0.49305   Biso      1.000     C          0.5221640000000001  
         C4        1.0000    0.44358   0.49305   0.05097   Biso      1.000     C          0.522162  
         F1        1.0000    0.00000   0.00000   0.00000   Biso      1.000     F          -0.727884           
         F2        1.0000    0.50000   0.00000   0.00000   Biso      1.000     F          -0.727888           
         Ho1       1.0000    0.75000   0.06649   0.06649   Biso      1.000     Ho          2.1269    
         Ho2       1.0000    0.25000   0.93351   0.93351   Biso      1.000     Ho          2.126902  
         O1        1.0000    0.80270   0.94558   0.35630   Biso      1.000     O          -0.6155390000000001           
         O2        1.0000    0.99693   0.12141   0.33273   Biso      1.000     O          -0.606128           
         O3        1.0000    0.69730   0.35630   0.94558   Biso      1.000     O          -0.615545           
         O4        1.0000    0.50307   0.33273   0.12141   Biso      1.000     O          -0.606128           
         O5        1.0000    0.19730   0.05442   0.64370   Biso      1.000     O          -0.61554  
         O6        1.0000    0.00307   0.87859   0.66727   Biso      1.000     O          -0.6061270000000001           
         O7        1.0000    0.30270   0.64370   0.05442   Biso      1.000     O          -0.6155430000000001           
         O8        1.0000    0.49693   0.66727   0.87859   Biso      1.000     O          -0.606129 