
##########################################################################
#               Crystallographic Information Format file
#               Produced by PyCifRW module
#
#  This is a CIF file.  CIF has been adopted by the International
#  Union of Crystallography as the standard for data archiving and
#  transmission.
#
#  For information on this file format, follow the CIF links at
#  http://www.iucr.org
##########################################################################

data_image0

_cell_length_a                          10.5561
_cell_length_b                          10.5378
_cell_length_c                          16.8962
_cell_angle_alpha                       83.205
_cell_angle_beta                        76.425
_cell_angle_gamma                       69.971
_symmetry_space_group_name_H-M          'P 1'
_symmetry_int_tables_number             1
loop_
  _symmetry_equiv_pos_as_xyz
         'x, y, z' 
loop_
  _atom_site_label
  _atom_site_occupancy
  _atom_site_fract_x
  _atom_site_fract_y
  _atom_site_fract_z
  _atom_site_thermal_displace_type
  _atom_site_B_iso_or_equiv
  _atom_site_type_symbol
  _atom_site_charge
         C1        1.0000    0.30720   0.61570   0.63470   Biso      1.000     C          0.664088  
         C2        1.0000    0.32260   0.90830   0.04800   Biso      1.000     C          -0.196671           
         C3        1.0000    0.20910   0.08040   0.95710   Biso      1.000     C          0.033268  
         C4        1.0000    0.31350   0.95690   0.96840   Biso      1.000     C          0.0234    
         C5        1.0000    0.41370   0.87330   0.90150   Biso      1.000     C          0.09626   
         C6        1.0000    0.37400   0.83910   0.83560   Biso      1.000     C          -0.130566           
         C7        1.0000    0.55230   0.81680   0.90740   Biso      1.000     C          -0.144582           
         C8        1.0000    0.46990   0.75470   0.77640   Biso      1.000     C          -0.085941           
         C9        1.0000    0.64780   0.73020   0.84950   Biso      1.000     C          -0.094927           
         C10       1.0000    0.18970   0.14470   0.87550   Biso      1.000     C          0.074966  
         C11       1.0000    0.60680   0.69880   0.78390   Biso      1.000     C          -0.078713           
         C12       1.0000    0.41740   0.72320   0.41160   Biso      1.000     C          0.645603  
         C13       1.0000    0.58260   0.27680   0.58840   Biso      1.000     C          0.645603  
         C14       1.0000    0.19200   0.69010   0.70190   Biso      1.000     C          -0.028132           
         C15       1.0000    0.64420   0.21140   0.66020   Biso      1.000     C          -0.024846           
         C16       1.0000    0.12180   0.62190   0.76090   Biso      1.000     C          -0.089607           
         C17       1.0000    0.15680   0.83000   0.70510   Biso      1.000     C          -0.093403           
         C18       1.0000    0.87610   0.67580   0.36100   Biso      1.000     C          0.632967  
         C19       1.0000    0.65320   0.28940   0.71800   Biso      1.000     C          -0.093075           
         C20       1.0000    0.71050   0.60690   0.72130   Biso      1.000     C          0.671601  
         C21       1.0000    0.68260   0.07080   0.67330   Biso      1.000     C          -0.089937           
         C22       1.0000    0.11980   0.14350   0.02620   Biso      1.000     C          -0.195197           
         C23       1.0000    0.29890   0.16000   0.81460   Biso      1.000     C          -0.149086           
         C24       1.0000    0.80800   0.30990   0.29810   Biso      1.000     C          -0.028132           
         C25       1.0000    0.35580   0.78860   0.33980   Biso      1.000     C          -0.024846           
         C26       1.0000    0.87820   0.37810   0.23910   Biso      1.000     C          -0.089607           
         C27       1.0000    0.84320   0.17000   0.29490   Biso      1.000     C          -0.093403           
         C28       1.0000    0.12390   0.32420   0.63900   Biso      1.000     C          0.632967  
         C29       1.0000    0.34680   0.71060   0.28200   Biso      1.000     C          -0.093075           
         C30       1.0000    0.31740   0.92920   0.32670   Biso      1.000     C          -0.089937           
         C31       1.0000    0.98150   0.30890   0.17660   Biso      1.000     C          -0.153533           
         C32       1.0000    0.23420   0.97260   0.11690   Biso      1.000     C          0.023705  
         C33       1.0000    0.94960   0.09950   0.23520   Biso      1.000     C          -0.141583           
         C34       1.0000    0.30320   0.77180   0.21140   Biso      1.000     C          -0.149651           
         C35       1.0000    0.27060   0.98910   0.25690   Biso      1.000     C          -0.137897           
         C36       1.0000    0.01950   0.16850   0.17410   Biso      1.000     C          0.07083   
         C37       1.0000    0.03690   0.25220   0.78310   Biso      1.000     C          -0.109637           
         C38       1.0000    0.27820   0.21710   0.73870   Biso      1.000     C          -0.093083           
         C39       1.0000    0.26470   0.91190   0.19760   Biso      1.000     C          0.08431   
         C40       1.0000    0.12740   0.09330   0.10600   Biso      1.000     C          0.032974  
         C41       1.0000    0.05860   0.19160   0.85830   Biso      1.000     C          -0.156527           
         C42       1.0000    0.14580   0.26500   0.72190   Biso      1.000     C          -0.022752           
         C43       1.0000    0.01850   0.69110   0.82340   Biso      1.000     C          -0.153533           
         C44       1.0000    0.69280   0.38430   0.36530   Biso      1.000     C          0.664088  
         C45       1.0000    0.88020   0.85650   0.97380   Biso      1.000     C          -0.195197           
         C46       1.0000    0.81030   0.85530   0.12450   Biso      1.000     C          0.074966  
         C47       1.0000    0.05040   0.90050   0.76480   Biso      1.000     C          -0.141583           
         C48       1.0000    0.76580   0.02740   0.88310   Biso      1.000     C          0.023705  
         C49       1.0000    0.68650   0.04310   0.03160   Biso      1.000     C          0.023399  
         C50       1.0000    0.70110   0.84000   0.18540   Biso      1.000     C          -0.149086           
         C51       1.0000    0.58630   0.12670   0.09850   Biso      1.000     C          0.09626   
         C52       1.0000    0.94140   0.80840   0.14170   Biso      1.000     C          -0.156527           
         C53       1.0000    0.87260   0.90670   0.89400   Biso      1.000     C          0.032974  
         C54       1.0000    0.62600   0.16090   0.16440   Biso      1.000     C          -0.130566           
         C55       1.0000    0.73530   0.08810   0.80240   Biso      1.000     C          0.084311  
         C56       1.0000    0.44770   0.18320   0.09260   Biso      1.000     C          -0.144582           
         C57       1.0000    0.67740   0.09170   0.95200   Biso      1.000     C          -0.19667  
         C58       1.0000    0.53010   0.24530   0.22360   Biso      1.000     C          -0.085941           
         C59       1.0000    0.35220   0.26980   0.15050   Biso      1.000     C          -0.094927           
         C60       1.0000    0.72180   0.78290   0.26130   Biso      1.000     C          -0.093083           
         C61       1.0000    0.79090   0.91960   0.04290   Biso      1.000     C          0.033268  
         C62       1.0000    0.72940   0.01090   0.74310   Biso      1.000     C          -0.137897           
         C63       1.0000    0.39320   0.30120   0.21610   Biso      1.000     C          -0.078713           
         C64       1.0000    0.28950   0.39310   0.27870   Biso      1.000     C          0.671601  
         C65       1.0000    0.85420   0.73500   0.27810   Biso      1.000     C          -0.022753           
         C66       1.0000    0.69680   0.22820   0.78860   Biso      1.000     C          -0.149651           
         C67       1.0000    0.98050   0.83150   0.82590   Biso      1.000     C          0.07083   
         C68       1.0000    0.96310   0.74780   0.21690   Biso      1.000     C          -0.109636           
         H1        1.0000    0.85560   0.47320   0.24120   Biso      1.000     H          0.114854  
         H2        1.0000    0.79340   0.12280   0.33420   Biso      1.000     H          0.125033  
         H3        1.0000    0.37050   0.61540   0.29070   Biso      1.000     H          0.113479  
         H4        1.0000    0.39370   0.82610   0.05560   Biso      1.000     H          0.118414  
         H5        1.0000    0.71990   0.12580   0.16870   Biso      1.000     H          0.112068  
         H6        1.0000    0.32350   0.98360   0.36580   Biso      1.000     H          0.124861  
         H7        1.0000    0.02650   0.35740   0.13520   Biso      1.000     H          0.114583  
         H8        1.0000    0.94590   0.28550   0.77330   Biso      1.000     H          0.101365  
         H9        1.0000    0.04910   0.22610   0.01880   Biso      1.000     H          0.118624  
         H10       1.0000    0.38910   0.13080   0.82540   Biso      1.000     H          0.107556  
         H11       1.0000    0.97580   0.00380   0.23560   Biso      1.000     H          0.111269  
         H12       1.0000    0.55810   0.26470   0.26910   Biso      1.000     H          0.114028  
         H13       1.0000    0.29930   0.71730   0.17160   Biso      1.000     H          0.112936  
         H14       1.0000    0.98260   0.18190   0.89880   Biso      1.000     H          0.109699  
         H15       1.0000    0.25870   0.30760   0.14540   Biso      1.000     H          0.111354  
         H16       1.0000    0.24210   0.08480   0.24950   Biso      1.000     H          0.109355  
         H17       1.0000    0.35460   0.22380   0.69760   Biso      1.000     H          0.114004  
         H18       1.0000    0.41860   0.16190   0.04820   Biso      1.000     H          0.11145   
         H19       1.0000    0.11800   0.50200   0.29000   Biso      1.000     H          0.434634  
         H20       1.0000    0.05410   0.71450   0.22670   Biso      1.000     H          0.101365  
         H21       1.0000    0.60630   0.17390   0.94440   Biso      1.000     H          0.118414  
         H22       1.0000    0.75790   0.91520   0.75050   Biso      1.000     H          0.109355  
         H23       1.0000    0.70070   0.28270   0.82840   Biso      1.000     H          0.112936  
         H24       1.0000    0.64540   0.77620   0.30240   Biso      1.000     H          0.114005  
         H25       1.0000    0.02420   0.99620   0.76440   Biso      1.000     H          0.111269  
         H26       1.0000    0.97350   0.64260   0.86480   Biso      1.000     H          0.114583  
         H27       1.0000    0.67650   0.01640   0.63420   Biso      1.000     H          0.124861  
         H28       1.0000    0.62950   0.38460   0.70930   Biso      1.000     H          0.113479  
         H29       1.0000    0.01740   0.81810   0.10120   Biso      1.000     H          0.109699  
         H30       1.0000    0.28010   0.87420   0.83130   Biso      1.000     H          0.112068  
         H31       1.0000    0.14440   0.52680   0.75880   Biso      1.000     H          0.114854  
         H32       1.0000    0.20660   0.87720   0.66580   Biso      1.000     H          0.125033  
         H33       1.0000    0.58140   0.83810   0.95180   Biso      1.000     H          0.11145   
         H34       1.0000    0.44190   0.73530   0.73090   Biso      1.000     H          0.114028  
         H35       1.0000    0.74130   0.69240   0.85460   Biso      1.000     H          0.111354  
         H36       1.0000    0.88200   0.49800   0.71000   Biso      1.000     H          0.434634  
         H37       1.0000    0.61090   0.86920   0.17460   Biso      1.000     H          0.107556  
         H38       1.0000    0.95090   0.77390   0.98120   Biso      1.000     H          0.118624  
         Nd1       1.0000    0.37227   0.39760   0.48162   Biso      1.000     Nd          2.205246  
         Nd2       1.0000    0.62773   0.60240   0.51838   Biso      1.000     Nd          2.205247  
         O1        1.0000    0.41370   0.60630   0.43769   Biso      1.000     O          -0.778957           
         O2        1.0000    0.00550   0.40400   0.63373   Biso      1.000     O          -0.619061           
         O3        1.0000    0.52310   0.21630   0.55784   Biso      1.000     O          -0.615633           
         O4        1.0000    0.59490   0.33750   0.39126   Biso      1.000     O          -0.691238           
         O5        1.0000    0.47690   0.78370   0.44216   Biso      1.000     O          -0.615633           
         O6        1.0000    0.40510   0.66250   0.60874   Biso      1.000     O          -0.691238           
         O7        1.0000    0.31370   0.41180   0.34296   Biso      1.000     O          -0.656059           
         O8        1.0000    0.22200   0.29080   0.57916   Biso      1.000     O          -0.731976           
         O9        1.0000    0.99450   0.59600   0.36627   Biso      1.000     O          -0.619061           
         O10       1.0000    0.77800   0.70920   0.42084   Biso      1.000     O          -0.731976           
         O11       1.0000    0.68630   0.58820   0.65704   Biso      1.000     O          -0.656059           
         O12       1.0000    0.17260   0.45320   0.25720   Biso      1.000     O          -0.518052           
         O13       1.0000    0.70510   0.48630   0.39072   Biso      1.000     O          -0.668459           
         O14       1.0000    0.58630   0.39370   0.56231   Biso      1.000     O          -0.778957           
         O15       1.0000    0.29490   0.51370   0.60928   Biso      1.000     O          -0.668459           
         O16       1.0000    0.82740   0.54680   0.74280   Biso      1.000     O          -0.518052 