
##########################################################################
#               Crystallographic Information Format file
#               Produced by PyCifRW module
#
#  This is a CIF file.  CIF has been adopted by the International
#  Union of Crystallography as the standard for data archiving and
#  transmission.
#
#  For information on this file format, follow the CIF links at
#  http://www.iucr.org
##########################################################################

data_image0

_cell_length_a                          9.9516
_cell_length_b                          15.7818
_cell_length_c                          16.5509
_cell_angle_alpha                       110.421
_cell_angle_beta                        101.582
_cell_angle_gamma                       90.029
_symmetry_space_group_name_H-M          'P 1'
_symmetry_int_tables_number             1
loop_
  _symmetry_equiv_pos_as_xyz
         'x, y, z' 
loop_
  _atom_site_label
  _atom_site_occupancy
  _atom_site_fract_x
  _atom_site_fract_y
  _atom_site_fract_z
  _atom_site_thermal_displace_type
  _atom_site_B_iso_or_equiv
  _atom_site_type_symbol
  _atom_site_charge
         C1        1.0000    0.91660   0.71970   0.17330   Biso      1.000     C          -0.070607           
         C2        1.0000    0.27480   0.81870   0.67530   Biso      1.000     C          0.070878  
         C3        1.0000    0.19380   0.72910   0.35920   Biso      1.000     C          -0.005351           
         C4        1.0000    0.39460   0.86540   0.72610   Biso      1.000     C          -0.122848           
         C5        1.0000    0.21120   0.81310   0.35080   Biso      1.000     C          -0.153232           
         C6        1.0000    0.39370   0.95590   0.77690   Biso      1.000     C          -0.09027  
         C7        1.0000    0.27110   0.99620   0.77910   Biso      1.000     C          -0.010317           
         C8        1.0000    0.26640   0.82120   0.28320   Biso      1.000     C          0.092114  
         C9        1.0000    0.30220   0.74350   0.22240   Biso      1.000     C          -0.200605           
         C10       1.0000    0.27830   0.91270   0.27370   Biso      1.000     C          -0.04334  
         C11       1.0000    0.22960   0.65270   0.29750   Biso      1.000     C          -0.161857           
         C12       1.0000    0.39340   0.13320   0.89520   Biso      1.000     C          -0.565105           
         C13       1.0000    0.35930   0.04730   0.38890   Biso      1.000     C          0.161696  
         C14       1.0000    0.23230   0.09920   0.38870   Biso      1.000     C          0.542054  
         C15       1.0000    0.47870   0.10190   0.45370   Biso      1.000     C          -0.530043           
         C16       1.0000    0.34970   0.14740   0.72300   Biso      1.000     C          -0.57043  
         C17       1.0000    0.23560   0.15310   0.77130   Biso      1.000     C          0.273986  
         C18       1.0000    0.81800   0.57420   0.07530   Biso      1.000     C          0.083025  
         C19       1.0000    0.32400   0.31410   0.87350   Biso      1.000     C          0.015331  
         C20       1.0000    0.21520   0.25140   0.82470   Biso      1.000     C          0.001718  
         C21       1.0000    0.93230   0.62950   0.12210   Biso      1.000     C          -0.117527           
         C22       1.0000    0.26390   0.09640   0.83320   Biso      1.000     C          0.282046  
         C23       1.0000    0.08340   0.28030   0.82670   Biso      1.000     C          -0.070604           
         C24       1.0000    0.15380   0.94200   0.72750   Biso      1.000     C          0.030927  
         C25       1.0000    0.47870   0.62720   0.88010   Biso      1.000     C          0.075932  
         C26       1.0000    0.04770   0.55800   0.73230   Biso      1.000     C          -0.078424           
         C27       1.0000    0.99610   0.63990   0.76940   Biso      1.000     C          -0.003191           
         C28       1.0000    0.96840   0.69420   0.71990   Biso      1.000     C          0.025514  
         C29       1.0000    0.73540   0.66600   0.38370   Biso      1.000     C          0.068999  
         C30       1.0000    0.62090   0.61250   0.32860   Biso      1.000     C          -0.132826           
         C31       1.0000    0.83830   0.71050   0.87250   Biso      1.000     C          -0.564194           
         C32       1.0000    0.97940   0.67290   0.86550   Biso      1.000     C          0.289449  
         C33       1.0000    0.53630   0.57170   0.36300   Biso      1.000     C          -0.080916           
         C34       1.0000    0.56730   0.58580   0.45240   Biso      1.000     C          0.006023  
         C35       1.0000    0.28300   0.65910   0.22820   Biso      1.000     C          -0.018116           
         C36       1.0000    0.68520   0.63810   0.50140   Biso      1.000     C          0.036667  
         C37       1.0000    0.10040   0.74490   0.92540   Biso      1.000     C          0.293893  
         C38       1.0000    0.47230   0.54490   0.49460   Biso      1.000     C          0.286168  
         C39       1.0000    0.29800   0.64800   0.94970   Biso      1.000     C          0.029099  
         C40       1.0000    0.23940   0.70710   0.90980   Biso      1.000     C          -0.01279  
         C41       1.0000    0.45790   0.61410   0.58380   Biso      1.000     C          -0.576998           
         C42       1.0000    0.30880   0.72630   0.85320   Biso      1.000     C          -0.098658           
         C43       1.0000    0.31490   0.57410   0.15800   Biso      1.000     C          0.574682  
         C44       1.0000    0.42970   0.68630   0.83800   Biso      1.000     C          -0.129507           
         C45       1.0000    0.13330   0.72400   0.43300   Biso      1.000     C          0.56948   
         C46       1.0000    0.09530   0.76890   0.02010   Biso      1.000     C          -0.582375           
         C47       1.0000    0.04390   0.59220   0.60390   Biso      1.000     C          0.070628  
         C48       1.0000    0.06920   0.53310   0.64860   Biso      1.000     C          -0.111521           
         C49       1.0000    0.78480   0.74860   0.17530   Biso      1.000     C          0.001716  
         C50       1.0000    0.57030   0.31370   0.16200   Biso      1.000     C          -0.129509           
         C51       1.0000    0.69120   0.27370   0.14680   Biso      1.000     C          -0.098662           
         C52       1.0000    0.76060   0.29290   0.09020   Biso      1.000     C          -0.012788           
         C53       1.0000    0.70200   0.35200   0.05030   Biso      1.000     C          0.0291    
         C54       1.0000    0.89960   0.25510   0.07460   Biso      1.000     C          0.293893  
         C55       1.0000    0.90470   0.23110   0.97990   Biso      1.000     C          -0.582375           
         C56       1.0000    0.02060   0.32710   0.13450   Biso      1.000     C          0.289449  
         C57       1.0000    0.16170   0.28950   0.12750   Biso      1.000     C          -0.564194           
         C58       1.0000    0.00390   0.36010   0.23060   Biso      1.000     C          -0.003195           
         C59       1.0000    0.52130   0.37280   0.11990   Biso      1.000     C          0.075935  
         C60       1.0000    0.95230   0.44200   0.26770   Biso      1.000     C          -0.078419           
         C61       1.0000    0.95610   0.40780   0.39610   Biso      1.000     C          0.070628  
         C62       1.0000    0.03160   0.30580   0.28010   Biso      1.000     C          0.025515  
         C63       1.0000    0.26460   0.33400   0.61630   Biso      1.000     C          0.068999  
         C64       1.0000    0.37910   0.38750   0.67140   Biso      1.000     C          -0.132826           
         C65       1.0000    0.46370   0.42830   0.63700   Biso      1.000     C          -0.080916           
         C66       1.0000    0.43270   0.41420   0.54760   Biso      1.000     C          0.006023  
         C67       1.0000    0.31480   0.36190   0.49860   Biso      1.000     C          0.036667  
         C68       1.0000    0.52770   0.45510   0.50540   Biso      1.000     C          0.286168  
         C69       1.0000    0.54210   0.38590   0.41620   Biso      1.000     C          -0.576998           
         C70       1.0000    0.93080   0.46690   0.35140   Biso      1.000     C          -0.111522           
         C71       1.0000    0.06770   0.37050   0.87790   Biso      1.000     C          -0.117543           
         C72       1.0000    0.84620   0.05800   0.27250   Biso      1.000     C          0.030926  
         C73       1.0000    0.86670   0.27600   0.56700   Biso      1.000     C          0.56948   
         C74       1.0000    0.18200   0.42580   0.92470   Biso      1.000     C          0.083042  
         C75       1.0000    0.67600   0.68590   0.12650   Biso      1.000     C          0.015335  
         C76       1.0000    0.76440   0.84690   0.22870   Biso      1.000     C          0.273986  
         C77       1.0000    0.65030   0.85260   0.27700   Biso      1.000     C          -0.570431           
         C78       1.0000    0.52130   0.89810   0.54630   Biso      1.000     C          -0.530043           
         C79       1.0000    0.76770   0.90080   0.61130   Biso      1.000     C          0.542054  
         C80       1.0000    0.73610   0.90360   0.16680   Biso      1.000     C          0.282046  
         C81       1.0000    0.64070   0.95270   0.61110   Biso      1.000     C          0.161695  
         C82       1.0000    0.60660   0.86680   0.10480   Biso      1.000     C          -0.565105           
         C83       1.0000    0.68510   0.42590   0.84200   Biso      1.000     C          0.574682  
         C84       1.0000    0.72890   0.00380   0.22090   Biso      1.000     C          -0.01032  
         C85       1.0000    0.60630   0.04410   0.22310   Biso      1.000     C          -0.090264           
         C86       1.0000    0.69780   0.25650   0.77760   Biso      1.000     C          -0.200606           
         C87       1.0000    0.73360   0.17880   0.71680   Biso      1.000     C          0.092115  
         C88       1.0000    0.60540   0.13460   0.27390   Biso      1.000     C          -0.122863           
         C89       1.0000    0.78880   0.18690   0.64920   Biso      1.000     C          -0.153232           
         C90       1.0000    0.80620   0.27090   0.64080   Biso      1.000     C          -0.00535  
         C91       1.0000    0.72520   0.18130   0.32470   Biso      1.000     C          0.070894  
         C92       1.0000    0.77040   0.34730   0.70250   Biso      1.000     C          -0.161857           
         C93       1.0000    0.71700   0.34090   0.77180   Biso      1.000     C          -0.018116           
         C94       1.0000    0.72170   0.08730   0.72630   Biso      1.000     C          -0.04334  
         Cd1       1.0000    0.95979   0.77521   0.56704   Biso      1.000     Cd          0.782172  
         Cd2       1.0000    0.04021   0.22479   0.43296   Biso      1.000     Cd          0.782172  
         Cd3       1.0000    0.50000   0.50000   0.00000   Biso      1.000     Cd          0.756188  
         H1        1.0000    0.81480   0.13550   0.60870   Biso      1.000     H          0.127881  
         H2        1.0000    0.52410   0.01040   0.19040   Biso      1.000     H          0.111827  
         H3        1.0000    0.66020   0.25180   0.82310   Biso      1.000     H          0.105954  
         H4        1.0000    0.81180   0.06400   0.73350   Biso      1.000     H          0.091478  
         H5        1.0000    0.58860   0.89850   0.06410   Biso      1.000     H          0.175554  
         H6        1.0000    0.53370   0.87400   0.13630   Biso      1.000     H          0.163611  
         H7        1.0000    0.61180   0.80350   0.07280   Biso      1.000     H          0.169812  
         H8        1.0000    0.68570   0.09330   0.77810   Biso      1.000     H          0.071344  
         H9        1.0000    0.61670   0.93410   0.65740   Biso      1.000     H          -0.017177           
         H10       1.0000    0.66610   0.81430   0.31150   Biso      1.000     H          0.182675  
         H11       1.0000    0.56420   0.83300   0.23520   Biso      1.000     H          0.169708  
         H12       1.0000    0.64770   0.91410   0.31520   Biso      1.000     H          0.176144  
         H13       1.0000    0.44200   0.93280   0.55010   Biso      1.000     H          0.167601  
         H14       1.0000    0.50460   0.84430   0.55840   Biso      1.000     H          0.154021  
         H15       1.0000    0.58730   0.70380   0.12820   Biso      1.000     H          0.094846  
         H16       1.0000    0.53900   0.88160   0.48810   Biso      1.000     H          0.145702  
         H17       1.0000    0.17120   0.48490   0.95960   Biso      1.000     H          0.091973  
         H18       1.0000    0.99350   0.75950   0.20550   Biso      1.000     H          0.111982  
         H19       1.0000    0.10080   0.47680   0.62200   Biso      1.000     H          0.113146  
         H20       1.0000    0.01930   0.60840   0.12050   Biso      1.000     H          0.121396  
         H21       1.0000    0.00650   0.24050   0.79450   Biso      1.000     H          0.111982  
         H22       1.0000    0.82880   0.51510   0.04040   Biso      1.000     H          0.091974  
         H23       1.0000    0.41270   0.29620   0.87180   Biso      1.000     H          0.094847  
         H24       1.0000    0.46100   0.11840   0.51190   Biso      1.000     H          0.145702  
         H25       1.0000    0.49540   0.15570   0.44160   Biso      1.000     H          0.154021  
         H26       1.0000    0.52360   0.16310   0.27320   Biso      1.000     H          0.123061  
         H27       1.0000    0.55800   0.06720   0.44990   Biso      1.000     H          0.167601  
         H28       1.0000    0.78210   0.40360   0.69760   Biso      1.000     H          0.113616  
         H29       1.0000    0.30020   0.56200   0.43380   Biso      1.000     H          0.394121  
         H30       1.0000    0.46010   0.38160   0.37260   Biso      1.000     H          0.173637  
         H31       1.0000    0.55570   0.32770   0.42150   Biso      1.000     H          0.16643   
         H32       1.0000    0.29080   0.35420   0.43900   Biso      1.000     H          0.096478  
         H33       1.0000    0.54120   0.46510   0.67350   Biso      1.000     H          0.11654   
         H34       1.0000    0.39920   0.39600   0.73120   Biso      1.000     H          0.120625  
         H35       1.0000    0.20850   0.30590   0.63970   Biso      1.000     H          0.0938    
         H36       1.0000    0.06920   0.25110   0.25620   Biso      1.000     H          0.107609  
         H37       1.0000    0.93720   0.42420   0.45210   Biso      1.000     H          0.094592  
         H38       1.0000    0.89920   0.52320   0.37800   Biso      1.000     H          0.113146  
         H39       1.0000    0.93210   0.48040   0.23590   Biso      1.000     H          0.114604  
         H40       1.0000    0.17470   0.27570   0.06840   Biso      1.000     H          0.177588  
         H41       1.0000    0.16600   0.23530   0.14150   Biso      1.000     H          0.173815  
         H42       1.0000    0.23260   0.33390   0.16810   Biso      1.000     H          0.174019  
         H43       1.0000    0.12170   0.08110   0.66370   Biso      1.000     H          0.420383  
         H44       1.0000    0.98400   0.19810   0.96840   Biso      1.000     H          0.17608   
         H45       1.0000    0.91050   0.28550   0.96690   Biso      1.000     H          0.178273  
         H46       1.0000    0.82300   0.19420   0.94350   Biso      1.000     H          0.155164  
         H47       1.0000    0.07520   0.09480   0.84470   Biso      1.000     H          0.393477  
         H48       1.0000    0.74560   0.36440   0.01050   Biso      1.000     H          0.095432  
         H49       1.0000    0.13310   0.86740   0.93760   Biso      1.000     H          0.400677  
         H50       1.0000    0.72560   0.23390   0.17480   Biso      1.000     H          0.106592  
         H51       1.0000    0.52270   0.30090   0.19980   Biso      1.000     H          0.1214    
         H52       1.0000    0.92180   0.56710   0.87890   Biso      1.000     H          0.401463  
         H53       1.0000    0.44020   0.39960   0.13020   Biso      1.000     H          0.094101  
         H54       1.0000    0.93050   0.03290   0.27030   Biso      1.000     H          0.089539  
         H55       1.0000    0.72350   0.24150   0.36060   Biso      1.000     H          0.090063  
         H56       1.0000    0.35230   0.08590   0.68480   Biso      1.000     H          0.176144  
         H57       1.0000    0.06790   0.51960   0.76410   Biso      1.000     H          0.114605  
         H58       1.0000    0.38330   0.06590   0.34260   Biso      1.000     H          -0.017177           
         H59       1.0000    0.43580   0.16700   0.76480   Biso      1.000     H          0.169708  
         H60       1.0000    0.61960   0.40510   0.39870   Biso      1.000     H          0.168114  
         H61       1.0000    0.38040   0.59490   0.60130   Biso      1.000     H          0.168114  
         H62       1.0000    0.53990   0.61840   0.62740   Biso      1.000     H          0.173637  
         H63       1.0000    0.44430   0.67230   0.57850   Biso      1.000     H          0.16643   
         H64       1.0000    0.27440   0.76610   0.82520   Biso      1.000     H          0.106592  
         H65       1.0000    0.25440   0.63560   0.98950   Biso      1.000     H          0.095432  
         H66       1.0000    0.70920   0.64580   0.56100   Biso      1.000     H          0.096478  
         H67       1.0000    0.17700   0.80580   0.05650   Biso      1.000     H          0.155164  
         H68       1.0000    0.08950   0.71450   0.03310   Biso      1.000     H          0.178273  
         H69       1.0000    0.45880   0.53490   0.32650   Biso      1.000     H          0.11654   
         H70       1.0000    0.01600   0.80190   0.03160   Biso      1.000     H          0.17608   
         H71       1.0000    0.60080   0.60400   0.26880   Biso      1.000     H          0.120625  
         H72       1.0000    0.76740   0.66610   0.83190   Biso      1.000     H          0.174019  
         H73       1.0000    0.79150   0.69410   0.36030   Biso      1.000     H          0.0938    
         H74       1.0000    0.83400   0.76470   0.85850   Biso      1.000     H          0.173815  
         H75       1.0000    0.93080   0.74890   0.74380   Biso      1.000     H          0.107609  
         H76       1.0000    0.82530   0.72430   0.93160   Biso      1.000     H          0.177588  
         H77       1.0000    0.06280   0.57580   0.54790   Biso      1.000     H          0.094592  
         H78       1.0000    0.87830   0.91890   0.33630   Biso      1.000     H          0.420383  
         H79       1.0000    0.92480   0.90520   0.15530   Biso      1.000     H          0.393477  
         H80       1.0000    0.98070   0.39160   0.87950   Biso      1.000     H          0.121398  
         H81       1.0000    0.06950   0.96710   0.72970   Biso      1.000     H          0.08954   
         H82       1.0000    0.55980   0.60040   0.86980   Biso      1.000     H          0.094101  
         H83       1.0000    0.27650   0.75850   0.63940   Biso      1.000     H          0.090064  
         H84       1.0000    0.07820   0.43290   0.12110   Biso      1.000     H          0.401463  
         H85       1.0000    0.21790   0.59640   0.30240   Biso      1.000     H          0.113616  
         H86       1.0000    0.47640   0.83690   0.72680   Biso      1.000     H          0.12306   
         H87       1.0000    0.47590   0.98960   0.80960   Biso      1.000     H          0.111827  
         H88       1.0000    0.18520   0.86450   0.39130   Biso      1.000     H          0.127881  
         H89       1.0000    0.41140   0.10150   0.93590   Biso      1.000     H          0.175554  
         H90       1.0000    0.46630   0.12600   0.86370   Biso      1.000     H          0.163611  
         H91       1.0000    0.69980   0.43800   0.56620   Biso      1.000     H          0.394121  
         H92       1.0000    0.33980   0.74820   0.17690   Biso      1.000     H          0.105954  
         H93       1.0000    0.38820   0.19650   0.92720   Biso      1.000     H          0.169812  
         H94       1.0000    0.18820   0.93600   0.26650   Biso      1.000     H          0.091479  
         H95       1.0000    0.31430   0.90670   0.22190   Biso      1.000     H          0.071344  
         H96       1.0000    0.33390   0.18570   0.68850   Biso      1.000     H          0.182675  
         H97       1.0000    0.86690   0.13260   0.06240   Biso      1.000     H          0.400677  
         H98       1.0000    0.47730   0.69910   0.80020   Biso      1.000     H          0.121399  
         N1        1.0000    0.99360   0.67130   0.63730   Biso      1.000     N          -0.217513           
         N2        1.0000    0.41390   0.60750   0.93450   Biso      1.000     N          -0.215505           
         N3        1.0000    0.15390   0.85620   0.67490   Biso      1.000     N          -0.197955           
         N4        1.0000    0.30860   0.40030   0.92350   Biso      1.000     N          -0.2117   
         N5        1.0000    0.76900   0.67930   0.46980   Biso      1.000     N          -0.215222           
         N6        1.0000    0.58610   0.39250   0.06550   Biso      1.000     N          -0.215506           
         N7        1.0000    0.69140   0.59970   0.07650   Biso      1.000     N          -0.211699           
         N8        1.0000    0.84610   0.14380   0.32510   Biso      1.000     N          -0.197956           
         N9        1.0000    0.23100   0.32070   0.53020   Biso      1.000     N          -0.215222           
         N10       1.0000    0.00640   0.32870   0.36270   Biso      1.000     N          -0.217513           
         O1        1.0000    0.10700   0.11600   0.71050   Biso      1.000     O          -0.57755  
         O2        1.0000    0.89300   0.88400   0.28950   Biso      1.000     O          -0.57755  
         O3        1.0000    0.20570   0.14420   0.34030   Biso      1.000     O          -0.616854           
         O4        1.0000    0.16220   0.09960   0.44200   Biso      1.000     O          -0.573774           
         O5        1.0000    0.36650   0.97300   0.34930   Biso      1.000     O          -0.180828           
         O6        1.0000    0.06130   0.78750   0.46490   Biso      1.000     O          -0.547859           
         O7        1.0000    0.15210   0.65830   0.45860   Biso      1.000     O          -0.601857           
         O8        1.0000    0.26160   0.49920   0.15090   Biso      1.000     O          -0.601042           
         O9        1.0000    0.33930   0.51710   0.43670   Biso      1.000     O          -0.580592           
         O10       1.0000    0.39480   0.58470   0.11220   Biso      1.000     O          -0.588307           
         O11       1.0000    0.60520   0.41530   0.88780   Biso      1.000     O          -0.588307           
         O12       1.0000    0.73840   0.50080   0.84910   Biso      1.000     O          -0.601042           
         O13       1.0000    0.99300   0.60050   0.89840   Biso      1.000     O          -0.584725           
         O14       1.0000    0.84790   0.34170   0.54140   Biso      1.000     O          -0.601857           
         O15       1.0000    0.00700   0.39950   0.10160   Biso      1.000     O          -0.584725           
         O16       1.0000    0.93870   0.21250   0.53510   Biso      1.000     O          -0.547859           
         O17       1.0000    0.63350   0.02700   0.65070   Biso      1.000     O          -0.180828           
         O18       1.0000    0.08730   0.82360   0.89860   Biso      1.000     O          -0.573579           
         O19       1.0000    0.83780   0.90040   0.55800   Biso      1.000     O          -0.573774           
         O20       1.0000    0.79430   0.85580   0.65970   Biso      1.000     O          -0.616854           
         O21       1.0000    0.14880   0.10130   0.87970   Biso      1.000     O          -0.585443           
         O22       1.0000    0.91270   0.17640   0.10140   Biso      1.000     O          -0.57358  
         O23       1.0000    0.66070   0.48290   0.56330   Biso      1.000     O          -0.580592           
         O24       1.0000    0.85120   0.89870   0.12030   Biso      1.000     O          -0.585443 