
##########################################################################
#               Crystallographic Information Format file
#               Produced by PyCifRW module
#
#  This is a CIF file.  CIF has been adopted by the International
#  Union of Crystallography as the standard for data archiving and
#  transmission.
#
#  For information on this file format, follow the CIF links at
#  http://www.iucr.org
##########################################################################

data_image0

_cell_length_a                          16.4918
_cell_length_b                          16.8382
_cell_length_c                          18.4883
_cell_angle_alpha                       69.539
_cell_angle_beta                        66.786
_cell_angle_gamma                       63.792
_symmetry_space_group_name_H-M          'P 1'
_symmetry_int_tables_number             1
loop_
  _symmetry_equiv_pos_as_xyz
         'x, y, z' 
loop_
  _atom_site_label
  _atom_site_occupancy
  _atom_site_fract_x
  _atom_site_fract_y
  _atom_site_fract_z
  _atom_site_thermal_displace_type
  _atom_site_B_iso_or_equiv
  _atom_site_type_symbol
  _atom_site_charge
         C1        1.0000    0.28320   0.55460   0.91600   Biso      1.000     C          0.563978  
         C2        1.0000    0.48200   0.79230   0.69240   Biso      1.000     C          -0.178306           
         C3        1.0000    0.46310   0.80920   0.62060   Biso      1.000     C          0.096549  
         C4        1.0000    0.54080   0.68340   0.80780   Biso      1.000     C          0.114146  
         C5        1.0000    0.51970   0.61910   0.87610   Biso      1.000     C          -0.17617  
         C6        1.0000    0.54520   0.60700   0.94250   Biso      1.000     C          0.095772  
         C7        1.0000    0.61110   0.71590   0.88050   Biso      1.000     C          0.097315  
         C8        1.0000    0.58950   0.73320   0.81110   Biso      1.000     C          -0.183673           
         C9        1.0000    0.41150   0.67000   0.42940   Biso      1.000     C          0.587731  
         C10       1.0000    0.36090   0.62260   0.41830   Biso      1.000     C          -0.049428           
         C11       1.0000    0.31680   0.66050   0.35640   Biso      1.000     C          -0.107748           
         C12       1.0000    0.26830   0.61730   0.34690   Biso      1.000     C          -0.142189           
         C13       1.0000    0.26370   0.53510   0.39870   Biso      1.000     C          0.084094  
         C14       1.0000    0.30900   0.49730   0.45970   Biso      1.000     C          -0.146205           
         C15       1.0000    0.35660   0.54070   0.46950   Biso      1.000     C          -0.094446           
         C16       1.0000    0.20970   0.48650   0.39450   Biso      1.000     C          0.086918  
         C17       1.0000    0.11920   0.53260   0.38320   Biso      1.000     C          -0.203269           
         C18       1.0000    0.06710   0.48410   0.38600   Biso      1.000     C          0.089866  
         C19       1.0000    0.51290   0.70350   0.73530   Biso      1.000     C          0.107843  
         C20       1.0000    0.10780   0.39080   0.39830   Biso      1.000     C          -0.208533           
         C21       1.0000    0.51590   0.63700   0.70630   Biso      1.000     C          -0.169018           
         C22       1.0000    0.08950   0.78220   0.93800   Biso      1.000     C          -0.151429           
         C23       1.0000    0.00640   0.12610   0.88540   Biso      1.000     C          -0.20455  
         C24       1.0000    0.09560   0.08290   0.89550   Biso      1.000     C          0.082683  
         C25       1.0000    0.13850   0.98730   0.89960   Biso      1.000     C          -0.206301           
         C26       1.0000    0.09140   0.93970   0.89300   Biso      1.000     C          0.091741  
         C27       1.0000    0.00030   0.98640   0.88370   Biso      1.000     C          -0.205525           
         C28       1.0000    0.14640   0.13190   0.90210   Biso      1.000     C          0.089544  
         C29       1.0000    0.14890   0.21350   0.85150   Biso      1.000     C          -0.142895           
         C30       1.0000    0.19760   0.25920   0.85840   Biso      1.000     C          -0.10082  
         C31       1.0000    0.24160   0.22400   0.91930   Biso      1.000     C          -0.041521           
         C32       1.0000    0.23870   0.14140   0.97130   Biso      1.000     C          -0.096339           
         C33       1.0000    0.19250   0.09520   0.96330   Biso      1.000     C          -0.155913           
         C34       1.0000    0.29230   0.27210   0.92780   Biso      1.000     C          0.586949  
         C35       1.0000    0.13890   0.84150   0.89560   Biso      1.000     C          0.081451  
         C36       1.0000    0.23350   0.80590   0.85610   Biso      1.000     C          -0.153231           
         C37       1.0000    0.28100   0.71260   0.86210   Biso      1.000     C          -0.116903           
         C38       1.0000    0.23140   0.65370   0.90800   Biso      1.000     C          -0.018385           
         C39       1.0000    0.13580   0.68920   0.94430   Biso      1.000     C          -0.093648           
         C40       1.0000    0.49420   0.65910   0.63440   Biso      1.000     C          0.099328  
         C41       1.0000    0.19800   0.34310   0.40680   Biso      1.000     C          0.087106  
         C42       1.0000    0.24710   0.39370   0.40500   Biso      1.000     C          -0.208757           
         C43       1.0000    0.97120   0.53390   0.37730   Biso      1.000     C          0.077781  
         C44       1.0000    0.90440   0.91710   0.10450   Biso      1.000     C          0.082679  
         C45       1.0000    0.86150   0.01270   0.10040   Biso      1.000     C          -0.206301           
         C46       1.0000    0.90860   0.06030   0.10700   Biso      1.000     C          0.091741  
         C47       1.0000    0.99970   0.01360   0.11630   Biso      1.000     C          -0.205525           
         C48       1.0000    0.85360   0.86810   0.09790   Biso      1.000     C          0.089545  
         C49       1.0000    0.85110   0.78650   0.14850   Biso      1.000     C          -0.142895           
         C50       1.0000    0.80240   0.74080   0.14160   Biso      1.000     C          -0.10082  
         C51       1.0000    0.75840   0.77600   0.08070   Biso      1.000     C          -0.041521           
         C52       1.0000    0.76130   0.85860   0.02870   Biso      1.000     C          -0.096339           
         C53       1.0000    0.80750   0.90480   0.03670   Biso      1.000     C          -0.155913           
         C54       1.0000    0.70770   0.72790   0.07220   Biso      1.000     C          0.586949  
         C55       1.0000    0.86110   0.15850   0.10440   Biso      1.000     C          0.081451  
         C56       1.0000    0.76650   0.19410   0.14390   Biso      1.000     C          -0.153231           
         C57       1.0000    0.71900   0.28740   0.13790   Biso      1.000     C          -0.116903           
         C58       1.0000    0.76860   0.34630   0.09200   Biso      1.000     C          -0.018385           
         C59       1.0000    0.86420   0.31080   0.05570   Biso      1.000     C          -0.093647           
         C60       1.0000    0.91050   0.21780   0.06200   Biso      1.000     C          -0.151429           
         C61       1.0000    0.99360   0.87390   0.11460   Biso      1.000     C          -0.204546           
         C62       1.0000    0.04310   0.91970   0.12040   Biso      1.000     C          0.084699  
         C63       1.0000    0.26110   0.85510   0.18010   Biso      1.000     C          -0.09369  
         C64       1.0000    0.17070   0.89860   0.17350   Biso      1.000     C          -0.147939           
         C65       1.0000    0.91590   0.61780   0.39780   Biso      1.000     C          -0.140846           
         C66       1.0000    0.82580   0.66310   0.39020   Biso      1.000     C          -0.095261           
         C67       1.0000    0.78620   0.62700   0.36230   Biso      1.000     C          -0.040695           
         C68       1.0000    0.84070   0.54410   0.33880   Biso      1.000     C          -0.098412           
         C69       1.0000    0.93140   0.49760   0.34720   Biso      1.000     C          -0.145147           
         C70       1.0000    0.68630   0.67150   0.35930   Biso      1.000     C          0.612013  
         C71       1.0000    0.24260   0.24230   0.41770   Biso      1.000     C          0.065834  
         C72       1.0000    0.21530   0.19400   0.39070   Biso      1.000     C          -0.150986           
         C73       1.0000    0.95690   0.08030   0.87960   Biso      1.000     C          0.084699  
         C74       1.0000    0.25880   0.10080   0.40030   Biso      1.000     C          -0.108611           
         C75       1.0000    0.36010   0.10360   0.46220   Biso      1.000     C          -0.105682           
         C76       1.0000    0.31360   0.19560   0.45530   Biso      1.000     C          -0.147474           
         C77       1.0000    0.38470   0.95450   0.44120   Biso      1.000     C          0.551116  
         C78       1.0000    0.42180   0.73550   0.15060   Biso      1.000     C          0.592688  
         C79       1.0000    0.32310   0.78410   0.14280   Biso      1.000     C          -0.036724           
         C80       1.0000    0.29380   0.75500   0.09860   Biso      1.000     C          -0.097499           
         C81       1.0000    0.20380   0.79950   0.09150   Biso      1.000     C          -0.146141           
         C82       1.0000    0.14020   0.87210   0.12870   Biso      1.000     C          0.080398  
         C83       1.0000    0.33310   0.05500   0.43510   Biso      1.000     C          -0.019094           
         C84       1.0000    0.73890   0.14490   0.81990   Biso      1.000     C          -0.09369  
         C85       1.0000    0.71680   0.44540   0.08400   Biso      1.000     C          0.563979  
         C86       1.0000    0.64340   0.45930   0.53050   Biso      1.000     C          -0.094451           
         C87       1.0000    0.74120   0.89920   0.59970   Biso      1.000     C          -0.108612           
         C88       1.0000    0.08410   0.38220   0.60220   Biso      1.000     C          -0.140846           
         C89       1.0000    0.48410   0.36300   0.29370   Biso      1.000     C          -0.169023           
         C90       1.0000    0.78470   0.80600   0.60930   Biso      1.000     C          -0.150989           
         C91       1.0000    0.63910   0.37740   0.58170   Biso      1.000     C          -0.049427           
         C92       1.0000    0.75740   0.75770   0.58230   Biso      1.000     C          0.065839  
         C93       1.0000    0.31370   0.32850   0.64070   Biso      1.000     C          0.612013  
         C94       1.0000    0.17420   0.33690   0.60980   Biso      1.000     C          -0.095261           
         C95       1.0000    0.68320   0.33950   0.64360   Biso      1.000     C          -0.107748           
         C96       1.0000    0.58850   0.33000   0.57060   Biso      1.000     C          0.587731  
         C97       1.0000    0.51800   0.20770   0.30760   Biso      1.000     C          -0.178306           
         C98       1.0000    0.21380   0.37300   0.63770   Biso      1.000     C          -0.040695           
         C99       1.0000    0.15930   0.45590   0.66120   Biso      1.000     C          -0.098412           
         C100      1.0000    0.41050   0.26680   0.18890   Biso      1.000     C          -0.183681           
         C101      1.0000    0.06860   0.50240   0.65280   Biso      1.000     C          -0.145147           
         C102      1.0000    0.38890   0.28410   0.11950   Biso      1.000     C          0.097322  
         C103      1.0000    0.45480   0.39300   0.05750   Biso      1.000     C          0.095767  
         C104      1.0000    0.53690   0.19080   0.37940   Biso      1.000     C          0.096549  
         C105      1.0000    0.48710   0.29650   0.26470   Biso      1.000     C          0.107847  
         C106      1.0000    0.48030   0.38090   0.12390   Biso      1.000     C          -0.176166           
         C107      1.0000    0.50580   0.34090   0.36560   Biso      1.000     C          0.099329  
         C108      1.0000    0.02880   0.46610   0.62270   Biso      1.000     C          0.077781  
         C109      1.0000    0.85980   0.12790   0.87130   Biso      1.000     C          0.080398  
         C110      1.0000    0.79030   0.51350   0.60550   Biso      1.000     C          0.086917  
         C111      1.0000    0.69100   0.50270   0.54030   Biso      1.000     C          -0.146202           
         C112      1.0000    0.79620   0.20050   0.90850   Biso      1.000     C          -0.146146           
         C113      1.0000    0.88080   0.46740   0.61680   Biso      1.000     C          -0.203269           
         C114      1.0000    0.73630   0.46490   0.60130   Biso      1.000     C          0.084094  
         C115      1.0000    0.70620   0.24500   0.90140   Biso      1.000     C          -0.097494           
         C116      1.0000    0.82930   0.10140   0.82650   Biso      1.000     C          -0.147939           
         C117      1.0000    0.66690   0.94500   0.56490   Biso      1.000     C          -0.019098           
         C118      1.0000    0.67690   0.21590   0.85720   Biso      1.000     C          -0.036724           
         C119      1.0000    0.93290   0.51590   0.61400   Biso      1.000     C          0.089866  
         C120      1.0000    0.61530   0.04550   0.55880   Biso      1.000     C          0.551116  
         C121      1.0000    0.89220   0.60920   0.60170   Biso      1.000     C          -0.208533           
         C122      1.0000    0.73170   0.38270   0.65310   Biso      1.000     C          -0.142188           
         C123      1.0000    0.68640   0.80440   0.54470   Biso      1.000     C          -0.147477           
         C124      1.0000    0.80200   0.65690   0.59320   Biso      1.000     C          0.087106  
         C125      1.0000    0.75290   0.60630   0.59500   Biso      1.000     C          -0.208757           
         C126      1.0000    0.63990   0.89640   0.53780   Biso      1.000     C          -0.105676           
         C127      1.0000    0.57820   0.26450   0.84940   Biso      1.000     C          0.592687  
         C128      1.0000    0.45920   0.31660   0.19220   Biso      1.000     C          0.114146  
         Cd1       1.0000    0.52168   0.22466   0.54501   Biso      1.000     Cd          0.900299  
         Cd2       1.0000    0.62583   0.62603   0.06084   Biso      1.000     Cd          0.903175  
         Cd3       1.0000    0.44475   0.29490   0.74787   Biso      1.000     Cd          1.12161   
         Cd4       1.0000    0.37417   0.37397   0.93916   Biso      1.000     Cd          0.903175  
         Cd5       1.0000    0.47832   0.77534   0.45499   Biso      1.000     Cd          0.900299  
         Cd6       1.0000    0.55525   0.70510   0.25213   Biso      1.000     Cd          1.12161   
         H1        1.0000    0.67950   0.28390   0.67920   Biso      1.000     H          0.112035  
         H2        1.0000    0.94080   0.64460   0.41740   Biso      1.000     H          0.112618  
         H3        1.0000    0.03240   0.04590   0.11990   Biso      1.000     H          0.117516  
         H4        1.0000    0.88300   0.76080   0.18890   Biso      1.000     H          0.11856   
         H5        1.0000    0.79920   0.68570   0.17850   Biso      1.000     H          0.115862  
         H6        1.0000    0.76180   0.35650   0.69470   Biso      1.000     H          0.118598  
         H7        1.0000    0.33070   0.22770   0.47670   Biso      1.000     H          0.111298  
         H8        1.0000    0.73120   0.88320   0.98730   Biso      1.000     H          0.119458  
         H9        1.0000    0.30870   0.36270   0.41140   Biso      1.000     H          0.10448   
         H10       1.0000    0.80830   0.96130   0.00140   Biso      1.000     H          0.115324  
         H11       1.0000    0.73290   0.15410   0.17600   Biso      1.000     H          0.106976  
         H12       1.0000    0.65360   0.31060   0.16470   Biso      1.000     H          0.100413  
         H13       1.0000    0.89880   0.35040   0.02610   Biso      1.000     H          0.12112   
         H14       1.0000    0.07220   0.35770   0.40110   Biso      1.000     H          0.11399   
         H15       1.0000    0.79020   0.72040   0.40450   Biso      1.000     H          0.114539  
         H16       1.0000    0.80030   0.04420   0.09310   Biso      1.000     H          0.117745  
         H17       1.0000    0.50400   0.38790   0.38400   Biso      1.000     H          0.098678  
         H18       1.0000    0.69330   0.55910   0.50540   Biso      1.000     H          0.104011  
         H19       1.0000    0.51240   0.41640   0.12300   Biso      1.000     H          0.135598  
         H20       1.0000    0.41080   0.07350   0.48560   Biso      1.000     H          0.120087  
         H21       1.0000    0.33550   0.70500   0.07370   Biso      1.000     H          0.117358  
         H22       1.0000    0.47070   0.43690   0.01110   Biso      1.000     H          0.095766  
         H23       1.0000    0.23810   0.06790   0.38300   Biso      1.000     H          0.119473  
         H24       1.0000    0.52610   0.15890   0.28770   Biso      1.000     H          0.13347   
         H25       1.0000    0.18430   0.78050   0.06040   Biso      1.000     H          0.113313  
         H26       1.0000    0.16630   0.22490   0.36530   Biso      1.000     H          0.112815  
         H27       1.0000    0.35780   0.24930   0.11740   Biso      1.000     H          0.105336  
         H28       1.0000    0.39330   0.22240   0.23410   Biso      1.000     H          0.132303  
         H29       1.0000    0.96710   0.44050   0.33240   Biso      1.000     H          0.116886  
         H30       1.0000    0.12870   0.94730   0.20000   Biso      1.000     H          0.118316  
         H31       1.0000    0.46720   0.42400   0.26470   Biso      1.000     H          0.138259  
         H32       1.0000    0.81580   0.51940   0.31700   Biso      1.000     H          0.12217   
         H33       1.0000    0.28100   0.87440   0.21080   Biso      1.000     H          0.122615  
         H34       1.0000    0.02260   0.81040   0.11770   Biso      1.000     H          0.115428  
         H35       1.0000    0.55630   0.13000   0.40860   Biso      1.000     H          0.10558   
         H36       1.0000    0.87130   0.05270   0.80000   Biso      1.000     H          0.118316  
         H37       1.0000    0.61370   0.48530   0.48870   Biso      1.000     H          0.118121  
         H38       1.0000    0.03290   0.55950   0.66760   Biso      1.000     H          0.116886  
         H39       1.0000    0.10120   0.64960   0.97390   Biso      1.000     H          0.12112   
         H40       1.0000    0.34640   0.68940   0.83530   Biso      1.000     H          0.100413  
         H41       1.0000    0.26710   0.84590   0.82400   Biso      1.000     H          0.106976  
         H42       1.0000    0.83370   0.77510   0.63470   Biso      1.000     H          0.112815  
         H43       1.0000    0.76190   0.93210   0.61700   Biso      1.000     H          0.119474  
         H44       1.0000    0.19170   0.03870   0.99860   Biso      1.000     H          0.115324  
         H45       1.0000    0.26880   0.11680   0.01270   Biso      1.000     H          0.119458  
         H46       1.0000    0.09330   0.59680   0.37370   Biso      1.000     H          0.119968  
         H47       1.0000    0.58920   0.92650   0.51440   Biso      1.000     H          0.120086  
         H48       1.0000    0.11700   0.23920   0.81110   Biso      1.000     H          0.11856   
         H49       1.0000    0.66930   0.77230   0.52330   Biso      1.000     H          0.111298  
         H50       1.0000    0.96760   0.95410   0.88010   Biso      1.000     H          0.117516  
         H51       1.0000    0.19970   0.95580   0.90690   Biso      1.000     H          0.117745  
         H52       1.0000    0.66450   0.29500   0.92630   Biso      1.000     H          0.117357  
         H53       1.0000    0.97740   0.18960   0.88230   Biso      1.000     H          0.115428  
         H54       1.0000    0.81570   0.21950   0.93960   Biso      1.000     H          0.113313  
         H55       1.0000    0.71900   0.12560   0.78920   Biso      1.000     H          0.122615  
         H56       1.0000    0.20080   0.31430   0.82150   Biso      1.000     H          0.115862  
         H57       1.0000    0.97640   0.19450   0.03710   Biso      1.000     H          0.10934   
         H58       1.0000    0.02360   0.80550   0.96290   Biso      1.000     H          0.10934   
         H59       1.0000    0.90670   0.40320   0.62630   Biso      1.000     H          0.119968  
         H60       1.0000    0.52930   0.56310   0.98890   Biso      1.000     H          0.095766  
         H61       1.0000    0.69130   0.63730   0.58860   Biso      1.000     H          0.10448   
         H62       1.0000    0.48760   0.58360   0.87700   Biso      1.000     H          0.135599  
         H63       1.0000    0.60670   0.77760   0.76590   Biso      1.000     H          0.132303  
         H64       1.0000    0.05920   0.35540   0.58260   Biso      1.000     H          0.112618  
         H65       1.0000    0.44370   0.87000   0.59140   Biso      1.000     H          0.10558   
         H66       1.0000    0.20980   0.27960   0.59550   Biso      1.000     H          0.114539  
         H67       1.0000    0.47390   0.84110   0.71230   Biso      1.000     H          0.13347   
         H68       1.0000    0.53280   0.57600   0.73530   Biso      1.000     H          0.138259  
         H69       1.0000    0.49600   0.61210   0.61600   Biso      1.000     H          0.098678  
         H70       1.0000    0.18420   0.48060   0.68300   Biso      1.000     H          0.12217   
         H71       1.0000    0.32050   0.71610   0.32080   Biso      1.000     H          0.112035  
         H72       1.0000    0.38630   0.51470   0.51130   Biso      1.000     H          0.11812   
         H73       1.0000    0.30670   0.44090   0.49460   Biso      1.000     H          0.104011  
         H74       1.0000    0.23820   0.64350   0.30530   Biso      1.000     H          0.118598  
         H75       1.0000    0.92780   0.64230   0.59890   Biso      1.000     H          0.11399   
         H76       1.0000    0.64220   0.75070   0.88260   Biso      1.000     H          0.105336  
         N1        1.0000    0.40880   0.34650   0.05480   Biso      1.000     N          -0.21923  
         N2        1.0000    0.47110   0.74300   0.59070   Biso      1.000     N          -0.227209           
         N3        1.0000    0.52890   0.25700   0.40930   Biso      1.000     N          -0.227209           
         N4        1.0000    0.59120   0.65350   0.94520   Biso      1.000     N          -0.21923  
         O1        1.0000    0.56170   0.26990   0.62970   Biso      1.000     O          -0.610396           
         O2        1.0000    0.57910   0.34380   0.50400   Biso      1.000     O          -0.51202  
         O3        1.0000    0.36730   0.27280   0.59530   Biso      1.000     O          -0.563259           
         O4        1.0000    0.53480   0.07800   0.54960   Biso      1.000     O          -0.563525           
         O5        1.0000    0.55200   0.23070   0.81520   Biso      1.000     O          -0.593049           
         O6        1.0000    0.65340   0.09380   0.56370   Biso      1.000     O          -0.567186           
         O7        1.0000    0.33590   0.35030   0.68520   Biso      1.000     O          -0.581512           
         O8        1.0000    0.69480   0.74010   0.00560   Biso      1.000     O          -0.534355           
         O9        1.0000    0.32420   0.32620   0.86660   Biso      1.000     O          -0.603606           
         O10       1.0000    0.30520   0.25990   0.99440   Biso      1.000     O          -0.534355           
         O11       1.0000    0.23950   0.50170   0.95980   Biso      1.000     O          -0.564626           
         O12       1.0000    0.76050   0.49830   0.04020   Biso      1.000     O          -0.564626           
         O13       1.0000    0.62920   0.47640   0.11870   Biso      1.000     O          -0.594368           
         O14       1.0000    0.42090   0.65620   0.49600   Biso      1.000     O          -0.51202  
         O15       1.0000    0.43830   0.73010   0.37030   Biso      1.000     O          -0.610396           
         O16       1.0000    0.66410   0.64970   0.31480   Biso      1.000     O          -0.581512           
         O17       1.0000    0.63270   0.72720   0.40470   Biso      1.000     O          -0.563259           
         O18       1.0000    0.34660   0.90620   0.43630   Biso      1.000     O          -0.567186           
         O19       1.0000    0.46520   0.92200   0.45040   Biso      1.000     O          -0.563525           
         O20       1.0000    0.44800   0.76930   0.18480   Biso      1.000     O          -0.593049           
         O21       1.0000    0.47170   0.66570   0.12270   Biso      1.000     O          -0.564302           
         O22       1.0000    0.67580   0.67380   0.13340   Biso      1.000     O          -0.603606           
         O23       1.0000    0.52830   0.33430   0.87730   Biso      1.000     O          -0.564302           
         O24       1.0000    0.37080   0.52360   0.88130   Biso      1.000     O          -0.594368 