
##########################################################################
#               Crystallographic Information Format file
#               Produced by PyCifRW module
#
#  This is a CIF file.  CIF has been adopted by the International
#  Union of Crystallography as the standard for data archiving and
#  transmission.
#
#  For information on this file format, follow the CIF links at
#  http://www.iucr.org
##########################################################################

data_image0

_cell_length_a                          7.767
_cell_length_b                          16.244
_cell_length_c                          15.3043
_cell_angle_alpha                       90
_cell_angle_beta                        90
_cell_angle_gamma                       90
_symmetry_space_group_name_H-M          'P 1'
_symmetry_int_tables_number             1
loop_
  _symmetry_equiv_pos_as_xyz
         'x, y, z' 
loop_
  _atom_site_label
  _atom_site_occupancy
  _atom_site_fract_x
  _atom_site_fract_y
  _atom_site_fract_z
  _atom_site_thermal_displace_type
  _atom_site_B_iso_or_equiv
  _atom_site_type_symbol
  _atom_site_charge
         C1        1.0000    0.79900   0.00690   0.42150   Biso      1.000     C          0.322493  
         C2        1.0000    0.34460   0.99700   0.25310   Biso      1.000     C          0.311625  
         C3        1.0000    0.20100   0.99310   0.92150   Biso      1.000     C          0.322493  
         C4        1.0000    0.35100   0.74480   0.09530   Biso      1.000     C          0.317772  
         C5        1.0000    0.83000   0.00210   0.09580   Biso      1.000     C          0.307829  
         C6        1.0000    0.65540   0.00300   0.75310   Biso      1.000     C          0.311625  
         C7        1.0000    0.64900   0.25520   0.59530   Biso      1.000     C          0.317772  
         C8        1.0000    0.17000   0.99790   0.59580   Biso      1.000     C          0.307829  
         C9        1.0000    0.33000   0.49790   0.59580   Biso      1.000     C          0.307829  
         C10       1.0000    0.85100   0.75520   0.59530   Biso      1.000     C          0.317772  
         C11       1.0000    0.70100   0.50690   0.42150   Biso      1.000     C          0.322493  
         C12       1.0000    0.84460   0.50300   0.75310   Biso      1.000     C          0.311625  
         C13       1.0000    0.67000   0.50210   0.09580   Biso      1.000     C          0.307829  
         C14       1.0000    0.14900   0.24480   0.09530   Biso      1.000     C          0.317772  
         C15       1.0000    0.29900   0.49310   0.92150   Biso      1.000     C          0.322493  
         C16       1.0000    0.15540   0.49700   0.25310   Biso      1.000     C          0.311625  
         Cd1       1.0000    0.49298   0.37922   0.75983   Biso      1.000     Cd          1.079148  
         Cd2       1.0000    0.99298   0.12078   0.25983   Biso      1.000     Cd          1.079148  
         Cd3       1.0000    0.00702   0.87922   0.75983   Biso      1.000     Cd          1.079148  
         Cd4       1.0000    0.50702   0.62078   0.25983   Biso      1.000     Cd          1.079148  
         Hg1       1.0000    0.54049   0.07107   0.56483   Biso      1.000     Hg          0.361775  
         Hg2       1.0000    0.04049   0.42893   0.06483   Biso      1.000     Hg          0.361775  
         Hg3       1.0000    0.95951   0.57107   0.56483   Biso      1.000     Hg          0.361775  
         Hg4       1.0000    0.45951   0.92893   0.06483   Biso      1.000     Hg          0.361775  
         N1        1.0000    0.65200   0.54690   0.36650   Biso      1.000     N          -0.47550600000000004          
         N2        1.0000    0.74200   0.45380   0.76720   Biso      1.000     N          -0.473141           
         N3        1.0000    0.62300   0.53780   0.15510   Biso      1.000     N          -0.46923100000000006          
         N4        1.0000    0.11980   0.20440   0.15430   Biso      1.000     N          -0.47314799999999996          
         N5        1.0000    0.34800   0.45310   0.86650   Biso      1.000     N          -0.47550600000000004          
         N6        1.0000    0.25800   0.54620   0.26720   Biso      1.000     N          -0.473141           
         N7        1.0000    0.84800   0.04690   0.36650   Biso      1.000     N          -0.47550600000000004          
         N8        1.0000    0.61980   0.29560   0.65430   Biso      1.000     N          -0.47314799999999996          
         N9        1.0000    0.75800   0.95380   0.76720   Biso      1.000     N          -0.473141           
         N10       1.0000    0.87700   0.03780   0.15510   Biso      1.000     N          -0.46923100000000006          
         N11       1.0000    0.38020   0.70440   0.15430   Biso      1.000     N          -0.47314799999999996          
         N12       1.0000    0.88020   0.79560   0.65430   Biso      1.000     N          -0.47314799999999996          
         N13       1.0000    0.12300   0.96220   0.65510   Biso      1.000     N          -0.46923100000000006          
         N14       1.0000    0.37700   0.46220   0.65510   Biso      1.000     N          -0.46923100000000006          
         N15       1.0000    0.24200   0.04620   0.26720   Biso      1.000     N          -0.473142           
         N16       1.0000    0.15200   0.95310   0.86650   Biso      1.000     N          -0.47550600000000004          
         S1        1.0000    0.29520   0.80420   0.01270   Biso      1.000     S          -0.222404           
         S2        1.0000    0.26560   0.55330   0.51190   Biso      1.000     S          -0.202766           
         S3        1.0000    0.77020   0.45350   0.50560   Biso      1.000     S          -0.190458           
         S4        1.0000    0.98640   0.57400   0.72960   Biso      1.000     S          -0.19398900000000002          
         S5        1.0000    0.73440   0.44670   0.01190   Biso      1.000     S          -0.202766           
         S6        1.0000    0.22980   0.54650   0.00560   Biso      1.000     S          -0.190458           
         S7        1.0000    0.48640   0.92600   0.22960   Biso      1.000     S          -0.19398900000000002          
         S8        1.0000    0.01360   0.42600   0.22960   Biso      1.000     S          -0.19398900000000002          
         S9        1.0000    0.23440   0.05330   0.51190   Biso      1.000     S          -0.202766           
         S10       1.0000    0.72980   0.95350   0.50560   Biso      1.000     S          -0.190458           
         S11       1.0000    0.51360   0.07400   0.72960   Biso      1.000     S          -0.19398900000000002          
         S12       1.0000    0.70480   0.19580   0.51270   Biso      1.000     S          -0.222404           
         S13       1.0000    0.76560   0.94670   0.01190   Biso      1.000     S          -0.202766           
         S14       1.0000    0.27020   0.04650   0.00560   Biso      1.000     S          -0.190458           
         S15       1.0000    0.20480   0.30420   0.01270   Biso      1.000     S          -0.222404           
         S16       1.0000    0.79520   0.69580   0.51270   Biso      1.000     S          -0.222404 