
##########################################################################
#               Crystallographic Information Format file
#               Produced by PyCifRW module
#
#  This is a CIF file.  CIF has been adopted by the International
#  Union of Crystallography as the standard for data archiving and
#  transmission.
#
#  For information on this file format, follow the CIF links at
#  http://www.iucr.org
##########################################################################

data_image0

_cell_length_a                          7.3332
_cell_length_b                          7.7088
_cell_length_c                          12.07
_cell_angle_alpha                       90
_cell_angle_beta                        91.42
_cell_angle_gamma                       90
_symmetry_space_group_name_H-M          'P 1'
_symmetry_int_tables_number             1
loop_
  _symmetry_equiv_pos_as_xyz
         'x, y, z' 
loop_
  _atom_site_label
  _atom_site_occupancy
  _atom_site_fract_x
  _atom_site_fract_y
  _atom_site_fract_z
  _atom_site_thermal_displace_type
  _atom_site_B_iso_or_equiv
  _atom_site_type_symbol
  _atom_site_charge
         C1        1.0000    0.94090   0.16260   0.28490   Biso      1.000     C          -0.187246           
         C2        1.0000    0.57430   0.54240   0.89900   Biso      1.000     C          0.238105  
         C3        1.0000    0.40700   0.61020   0.92740   Biso      1.000     C          -0.219835           
         C4        1.0000    0.66620   0.43460   0.97160   Biso      1.000     C          -0.186564           
         C5        1.0000    0.83560   0.15260   0.39190   Biso      1.000     C          0.701453  
         C6        1.0000    0.90700   0.88980   0.92740   Biso      1.000     C          -0.219836           
         C7        1.0000    0.92570   0.04240   0.10100   Biso      1.000     C          0.238105  
         C8        1.0000    0.55910   0.66260   0.71510   Biso      1.000     C          -0.187246           
         C9        1.0000    0.09300   0.11020   0.07260   Biso      1.000     C          -0.219835           
         C10       1.0000    0.33560   0.34740   0.39190   Biso      1.000     C          0.7014520000000001  
         C11       1.0000    0.44090   0.33740   0.28490   Biso      1.000     C          -0.187245           
         C12       1.0000    0.42570   0.45760   0.10100   Biso      1.000     C          0.238105  
         C13       1.0000    0.59300   0.38980   0.07260   Biso      1.000     C          -0.219834           
         C14       1.0000    0.33380   0.56540   0.02840   Biso      1.000     C          -0.186563           
         C15       1.0000    0.16440   0.84740   0.60810   Biso      1.000     C          0.7014520000000001  
         C16       1.0000    0.83380   0.93460   0.02840   Biso      1.000     C          -0.186563           
         C17       1.0000    0.66440   0.65260   0.60810   Biso      1.000     C          0.701453  
         C18       1.0000    0.07430   0.95760   0.89900   Biso      1.000     C          0.23810599999999998           
         C19       1.0000    0.16620   0.06540   0.97160   Biso      1.000     C          -0.186563           
         C20       1.0000    0.05910   0.83740   0.71510   Biso      1.000     C          -0.187246           
         H1        1.0000    0.84440   0.81520   0.87930   Biso      1.000     H          0.118998  
         H2        1.0000    0.44100   0.60740   0.70490   Biso      1.000     H          0.123955  
         H3        1.0000    0.53960   0.78290   0.73510   Biso      1.000     H          0.112231  
         H4        1.0000    0.34440   0.68480   0.87930   Biso      1.000     H          0.118998  
         H5        1.0000    0.77940   0.39070   0.95280   Biso      1.000     H          0.130098  
         H6        1.0000    0.05900   0.10740   0.29510   Biso      1.000     H          0.123955  
         H7        1.0000    0.96040   0.28290   0.26490   Biso      1.000     H          0.112231  
         H8        1.0000    0.15560   0.18480   0.12070   Biso      1.000     H          0.118998  
         H9        1.0000    0.55900   0.39260   0.29510   Biso      1.000     H          0.123955  
         H10       1.0000    0.46040   0.21710   0.26490   Biso      1.000     H          0.112231  
         H11       1.0000    0.65560   0.31520   0.12070   Biso      1.000     H          0.118998  
         H12       1.0000    0.22060   0.60930   0.04720   Biso      1.000     H          0.130099  
         H13       1.0000    0.94100   0.89260   0.70490   Biso      1.000     H          0.123955  
         H14       1.0000    0.03960   0.71710   0.73510   Biso      1.000     H          0.112231  
         H15       1.0000    0.72060   0.89070   0.04720   Biso      1.000     H          0.130098  
         H16       1.0000    0.27940   0.10930   0.95280   Biso      1.000     H          0.130099  
         Mg1       1.0000    0.00000   0.50000   0.50000   Biso      1.000     Mg          1.466801  
         Mg2       1.0000    0.50000   0.00000   0.50000   Biso      1.000     Mg          1.466801  
         O1        1.0000    0.78930   0.54360   0.60280   Biso      1.000     O          -0.6691699999999999           
         O2        1.0000    0.61620   0.75370   0.53087   Biso      1.000     O          -0.7024560000000001           
         O3        1.0000    0.66040   0.57750   0.80032   Biso      1.000     O          -0.19297  
         O4        1.0000    0.71070   0.04360   0.39720   Biso      1.000     O          -0.669171           
         O5        1.0000    0.88380   0.25370   0.46913   Biso      1.000     O          -0.7024560000000001           
         O6        1.0000    0.83960   0.07750   0.19968   Biso      1.000     O          -0.19297  
         O7        1.0000    0.21070   0.45640   0.39720   Biso      1.000     O          -0.6691699999999999           
         O8        1.0000    0.38380   0.24630   0.46913   Biso      1.000     O          -0.7024560000000001           
         O9        1.0000    0.33960   0.42250   0.19968   Biso      1.000     O          -0.192969           
         O10       1.0000    0.28930   0.95640   0.60280   Biso      1.000     O          -0.669171           
         O11       1.0000    0.11620   0.74630   0.53087   Biso      1.000     O          -0.7024560000000001           
         O12       1.0000    0.16040   0.92250   0.80032   Biso      1.000     O          -0.192969 