
##########################################################################
#               Crystallographic Information Format file
#               Produced by PyCifRW module
#
#  This is a CIF file.  CIF has been adopted by the International
#  Union of Crystallography as the standard for data archiving and
#  transmission.
#
#  For information on this file format, follow the CIF links at
#  http://www.iucr.org
##########################################################################

data_image0

_cell_length_a                          10.125
_cell_length_b                          10.7664
_cell_length_c                          13.2928
_cell_angle_alpha                       86.521
_cell_angle_beta                        73.151
_cell_angle_gamma                       85.317
_symmetry_space_group_name_H-M          'P 1'
_symmetry_int_tables_number             1
loop_
  _symmetry_equiv_pos_as_xyz
         'x, y, z' 
loop_
  _atom_site_label
  _atom_site_occupancy
  _atom_site_fract_x
  _atom_site_fract_y
  _atom_site_fract_z
  _atom_site_thermal_displace_type
  _atom_site_B_iso_or_equiv
  _atom_site_type_symbol
  _atom_site_charge
         C1        1.0000    0.22560   0.76540   0.99880   Biso      1.000     C          0.118154  
         C2        1.0000    0.88010   0.34240   0.67010   Biso      1.000     C          0.566292  
         C3        1.0000    0.77440   0.23460   0.00120   Biso      1.000     C          0.118153  
         C4        1.0000    0.75850   0.26400   0.68430   Biso      1.000     C          -0.009097           
         C5        1.0000    0.57150   0.38600   0.00360   Biso      1.000     C          0.16383599999999998           
         C6        1.0000    0.47120   0.39870   0.95110   Biso      1.000     C          -0.143128           
         C7        1.0000    0.60090   0.48500   0.05270   Biso      1.000     C          -0.13955399999999998          
         C8        1.0000    0.62990   0.31710   0.68100   Biso      1.000     C          -0.139139           
         C9        1.0000    0.95870   0.09600   0.44110   Biso      1.000     C          0.168473  
         C10       1.0000    0.89380   0.98490   0.45640   Biso      1.000     C          -0.144051           
         C11       1.0000    0.37950   0.30020   0.70030   Biso      1.000     C          0.576354  
         C12       1.0000    0.06450   0.11152   0.48419   Biso      1.000     C          -0.14878  
         C13       1.0000    0.51990   0.24180   0.69790   Biso      1.000     C          -0.014516           
         C14       1.0000    0.77470   0.13810   0.70600   Biso      1.000     C          -0.166876           
         C15       1.0000    0.93550   0.88848   0.51581   Biso      1.000     C          -0.148778           
         C16       1.0000    0.10620   0.01510   0.54360   Biso      1.000     C          -0.144053           
         C17       1.0000    0.04130   0.90400   0.55890   Biso      1.000     C          0.168474  
         C18       1.0000    0.66610   0.05980   0.72230   Biso      1.000     C          0.071661  
         C19       1.0000    0.39910   0.51500   0.94730   Biso      1.000     C          -0.139558           
         C20       1.0000    0.52880   0.60130   0.04890   Biso      1.000     C          -0.143131           
         C21       1.0000    0.42850   0.61400   0.99640   Biso      1.000     C          0.16384100000000001           
         C22       1.0000    0.77460   0.89570   0.81570   Biso      1.000     C          -0.203649           
         C23       1.0000    0.87950   0.74990   0.92770   Biso      1.000     C          0.587576  
         C24       1.0000    0.80010   0.77400   0.84780   Biso      1.000     C          -0.02531  
         C25       1.0000    0.74620   0.67810   0.80920   Biso      1.000     C          -0.11118900000000001          
         C26       1.0000    0.69110   0.92550   0.74990   Biso      1.000     C          0.071384  
         C27       1.0000    0.66430   0.70780   0.74320   Biso      1.000     C          -0.083871           
         C28       1.0000    0.53780   0.11310   0.71760   Biso      1.000     C          -0.17523  
         C29       1.0000    0.57440   0.15490   0.03380   Biso      1.000     C          -0.099373           
         C30       1.0000    0.67260   0.06440   0.03800   Biso      1.000     C          -0.043162           
         C31       1.0000    0.92680   0.31790   0.38920   Biso      1.000     C          0.12270199999999999           
         C32       1.0000    0.12050   0.25010   0.07230   Biso      1.000     C          0.587576  
         C33       1.0000    0.19990   0.22600   0.15220   Biso      1.000     C          -0.025313           
         C34       1.0000    0.25380   0.32190   0.19080   Biso      1.000     C          -0.11118900000000001          
         C35       1.0000    0.32740   0.93560   0.96200   Biso      1.000     C          -0.043186           
         C36       1.0000    0.33570   0.29220   0.25680   Biso      1.000     C          -0.083872           
         C37       1.0000    0.36530   0.17050   0.28570   Biso      1.000     C          -0.156866           
         C38       1.0000    0.42560   0.84510   0.96620   Biso      1.000     C          -0.099351           
         C39       1.0000    0.30890   0.07450   0.25010   Biso      1.000     C          0.071385  
         C40       1.0000    0.22540   0.10430   0.18430   Biso      1.000     C          -0.203648           
         C41       1.0000    0.33390   0.94020   0.27770   Biso      1.000     C          0.071658  
         C42       1.0000    0.46220   0.88690   0.28240   Biso      1.000     C          -0.175234           
         C43       1.0000    0.48010   0.75820   0.30210   Biso      1.000     C          -0.014518000000000001         
         C44       1.0000    0.07320   0.68210   0.61080   Biso      1.000     C          0.122706  
         C45       1.0000    0.37010   0.68290   0.31900   Biso      1.000     C          -0.13914400000000002          
         C46       1.0000    0.17220   0.69530   0.73140   Biso      1.000     C          -0.005679           
         C47       1.0000    0.85180   0.18850   0.30200   Biso      1.000     C          -0.117546           
         C48       1.0000    0.82780   0.30470   0.26860   Biso      1.000     C          -0.005643           
         C49       1.0000    0.14820   0.81150   0.69800   Biso      1.000     C          -0.11750799999999999          
         C50       1.0000    0.62050   0.69980   0.29970   Biso      1.000     C          0.57635   
         C51       1.0000    0.22530   0.86190   0.29400   Biso      1.000     C          -0.16688499999999998          
         C52       1.0000    0.63470   0.82950   0.71430   Biso      1.000     C          -0.156863           
         C53       1.0000    0.24150   0.73600   0.31570   Biso      1.000     C          -0.009092           
         C54       1.0000    0.11990   0.65760   0.32990   Biso      1.000     C          0.566289  
         H1        1.0000    0.81420   0.95930   0.83880   Biso      1.000     H          0.10898699999999999           
         H2        1.0000    0.03260   0.65090   0.56400   Biso      1.000     H          0.10869100000000001           
         H3        1.0000    0.51910   0.85490   0.95580   Biso      1.000     H          0.126444  
         H4        1.0000    0.16920   0.88420   0.72280   Biso      1.000     H          0.134684  
         H5        1.0000    0.21440   0.67320   0.78400   Biso      1.000     H          0.11581199999999998           
         H6        1.0000    0.86050   0.10400   0.71000   Biso      1.000     H          0.115899  
         H7        1.0000    0.46400   0.06310   0.72740   Biso      1.000     H          0.11891900000000001           
         H8        1.0000    0.57720   0.84730   0.67120   Biso      1.000     H          0.115522  
         H9        1.0000    0.61760   0.40240   0.66750   Biso      1.000     H          0.127025  
         H10       1.0000    0.10740   0.18630   0.47330   Biso      1.000     H          0.12981199999999998           
         H11       1.0000    0.76510   0.59540   0.82780   Biso      1.000     H          0.115559  
         H12       1.0000    0.23490   0.40460   0.17220   Biso      1.000     H          0.115558  
         H13       1.0000    0.37180   0.35610   0.28240   Biso      1.000     H          0.11221600000000001           
         H14       1.0000    0.42280   0.15270   0.32880   Biso      1.000     H          0.115521  
         H15       1.0000    0.18580   0.04070   0.16120   Biso      1.000     H          0.10898699999999999           
         H16       1.0000    0.53600   0.93690   0.27260   Biso      1.000     H          0.11891600000000001           
         H17       1.0000    0.38240   0.59760   0.33250   Biso      1.000     H          0.127023  
         H18       1.0000    0.13950   0.89600   0.29000   Biso      1.000     H          0.115898  
         H19       1.0000    0.78560   0.32680   0.21600   Biso      1.000     H          0.115809  
         H20       1.0000    0.83080   0.11580   0.27720   Biso      1.000     H          0.134685  
         H21       1.0000    0.96740   0.34910   0.43600   Biso      1.000     H          0.10869000000000001           
         H22       1.0000    0.62820   0.64390   0.71760   Biso      1.000     H          0.11221800000000001           
         H23       1.0000    0.48090   0.14510   0.04420   Biso      1.000     H          0.126446  
         H24       1.0000    0.84180   0.29220   0.98520   Biso      1.000     H          0.115847  
         H25       1.0000    0.45190   0.33100   0.91880   Biso      1.000     H          0.132105  
         H26       1.0000    0.66810   0.47480   0.08820   Biso      1.000     H          0.135544  
         H27       1.0000    0.82270   0.97550   0.42680   Biso      1.000     H          0.134148  
         H28       1.0000    0.34290   0.01950   0.94720   Biso      1.000     H          0.12047200000000001           
         H29       1.0000    0.89260   0.81370   0.52670   Biso      1.000     H          0.12981199999999998           
         H30       1.0000    0.17730   0.02450   0.57320   Biso      1.000     H          0.134149  
         H31       1.0000    0.33190   0.52520   0.91180   Biso      1.000     H          0.135544  
         H32       1.0000    0.54810   0.66900   0.08120   Biso      1.000     H          0.132106  
         H33       1.0000    0.15820   0.70780   0.01480   Biso      1.000     H          0.115847  
         H34       1.0000    0.65710   0.98050   0.05280   Biso      1.000     H          0.12047100000000001           
         Mn1       1.0000    0.86159   0.59120   0.30786   Biso      1.000     Mn          1.016629  
         Mn2       1.0000    0.13841   0.40880   0.69214   Biso      1.000     Mn          1.016648  
         Mn3       1.0000    0.00000   0.00000   0.00000   Biso      1.000     Mn          0.9856360000000001  
         N1        1.0000    0.36070   0.73561   0.98889   Biso      1.000     N          0.019497999999999998          
         N2        1.0000    0.20048   0.88615   0.98289   Biso      1.000     N          -0.312872           
         N3        1.0000    0.08601   0.80293   0.61964   Biso      1.000     N          0.022812  
         N4        1.0000    0.87443   0.38720   0.32318   Biso      1.000     N          -0.311693           
         N5        1.0000    0.91399   0.19707   0.38036   Biso      1.000     N          0.022813  
         N6        1.0000    0.79952   0.11385   0.01711   Biso      1.000     N          -0.312874           
         N7        1.0000    0.12557   0.61280   0.67682   Biso      1.000     N          -0.311692           
         N8        1.0000    0.63930   0.26439   0.01111   Biso      1.000     N          0.0195    
         O1        1.0000    0.09533   0.36148   0.04575   Biso      1.000     O          -0.5765979999999999           
         O2        1.0000    0.08750   0.15768   0.03482   Biso      1.000     O          -0.623922           
         O3        1.0000    0.97660   0.29290   0.70699   Biso      1.000     O          -0.5874060000000001           
         O4        1.0000    0.72158   0.76600   0.28249   Biso      1.000     O          -0.5807869999999999           
         O5        1.0000    0.63660   0.58449   0.31350   Biso      1.000     O          -0.575222           
         O6        1.0000    0.11590   0.55269   0.37449   Biso      1.000     O          -0.570404           
         O7        1.0000    0.90467   0.63852   0.95425   Biso      1.000     O          -0.576595           
         O8        1.0000    0.91250   0.84232   0.96518   Biso      1.000     O          -0.62392  
         O9        1.0000    0.27842   0.23400   0.71751   Biso      1.000     O          -0.580781           
         O10       1.0000    0.36340   0.41551   0.68650   Biso      1.000     O          -0.5752149999999999           
         O11       1.0000    0.88410   0.44731   0.62551   Biso      1.000     O          -0.570397           
         O12       1.0000    0.02340   0.70710   0.29301   Biso      1.000     O          -0.587408 