
##########################################################################
#               Crystallographic Information Format file
#               Produced by PyCifRW module
#
#  This is a CIF file.  CIF has been adopted by the International
#  Union of Crystallography as the standard for data archiving and
#  transmission.
#
#  For information on this file format, follow the CIF links at
#  http://www.iucr.org
##########################################################################

data_image0

_cell_length_a                          6.7745
_cell_length_b                          14.22
_cell_length_c                          15.629
_cell_angle_alpha                       90
_cell_angle_beta                        101.1
_cell_angle_gamma                       90
_symmetry_space_group_name_H-M          'P 1'
_symmetry_int_tables_number             1
loop_
  _symmetry_equiv_pos_as_xyz
         'x, y, z' 
loop_
  _atom_site_label
  _atom_site_occupancy
  _atom_site_fract_x
  _atom_site_fract_y
  _atom_site_fract_z
  _atom_site_thermal_displace_type
  _atom_site_B_iso_or_equiv
  _atom_site_type_symbol
  _atom_site_charge
         C1        1.0000    0.42970   0.42460   0.26410   Biso      1.000     C          -0.5319510000000001           
         C2        1.0000    0.62350   0.66550   0.78640   Biso      1.000     C          0.68124   
         C3        1.0000    0.84350   0.61450   0.18090   Biso      1.000     C          -0.533608           
         C4        1.0000    0.81250   0.70120   0.12520   Biso      1.000     C          0.697094  
         C5        1.0000    0.54310   0.08360   0.85630   Biso      1.000     C          0.730271  
         C6        1.0000    0.42970   0.07540   0.76410   Biso      1.000     C          -0.531911           
         C7        1.0000    0.37650   0.16550   0.71360   Biso      1.000     C          0.6812819999999999  
         C8        1.0000    0.00350   0.10730   0.23630   Biso      1.000     C          0.7051689999999999  
         C9        1.0000    0.15650   0.11450   0.31910   Biso      1.000     C          -0.5336380000000001           
         C10       1.0000    0.18750   0.20120   0.37480   Biso      1.000     C          0.697068  
         C11       1.0000    0.57030   0.57540   0.73590   Biso      1.000     C          -0.531924           
         C12       1.0000    0.54310   0.41640   0.35630   Biso      1.000     C          0.73024   
         C13       1.0000    0.00350   0.39270   0.73630   Biso      1.000     C          0.705206  
         C14       1.0000    0.15650   0.38550   0.81910   Biso      1.000     C          -0.533571           
         C15       1.0000    0.18750   0.29880   0.87480   Biso      1.000     C          0.6971390000000001  
         C16       1.0000    0.45690   0.91640   0.14370   Biso      1.000     C          0.730226  
         C17       1.0000    0.57030   0.92460   0.23590   Biso      1.000     C          -0.531932           
         C18       1.0000    0.62350   0.83450   0.28640   Biso      1.000     C          0.681238  
         C19       1.0000    0.99650   0.89270   0.76370   Biso      1.000     C          0.705183  
         C20       1.0000    0.84350   0.88550   0.68090   Biso      1.000     C          -0.5335949999999999           
         C21       1.0000    0.81250   0.79880   0.62520   Biso      1.000     C          0.697103  
         C22       1.0000    0.37650   0.33450   0.21360   Biso      1.000     C          0.6812060000000001  
         C23       1.0000    0.45690   0.58360   0.64370   Biso      1.000     C          0.73028   
         C24       1.0000    0.99650   0.60730   0.26370   Biso      1.000     C          0.705187  
         H1        1.0000    0.91860   0.62230   0.55440   Biso      1.000     H          0.46914799999999995           
         H2        1.0000    0.49110   0.53700   0.76800   Biso      1.000     H          0.19561099999999998           
         H3        1.0000    0.12750   0.43610   0.85650   Biso      1.000     H          0.19977899999999998           
         H4        1.0000    0.71440   0.60000   0.19580   Biso      1.000     H          0.178091  
         H5        1.0000    0.87250   0.56390   0.14350   Biso      1.000     H          0.199851  
         H6        1.0000    0.08140   0.37770   0.44560   Biso      1.000     H          0.469105  
         H7        1.0000    0.22490   0.40140   0.52130   Biso      1.000     H          0.467765  
         H8        1.0000    0.50890   0.03700   0.73200   Biso      1.000     H          0.195546  
         H9        1.0000    0.30570   0.04160   0.76500   Biso      1.000     H          0.170199  
         H10       1.0000    0.28560   0.10000   0.30420   Biso      1.000     H          0.17812999999999998           
         H11       1.0000    0.12750   0.06390   0.35650   Biso      1.000     H          0.199906  
         H12       1.0000    0.91860   0.87770   0.05440   Biso      1.000     H          0.46911499999999995           
         H13       1.0000    0.69430   0.54160   0.73500   Biso      1.000     H          0.170261  
         H14       1.0000    0.77510   0.59860   0.47870   Biso      1.000     H          0.467713  
         H15       1.0000    0.50890   0.46300   0.23200   Biso      1.000     H          0.195634  
         H16       1.0000    0.30570   0.45840   0.26500   Biso      1.000     H          0.170275  
         H17       1.0000    0.28560   0.40000   0.80420   Biso      1.000     H          0.178072  
         H18       1.0000    0.22490   0.09860   0.02130   Biso      1.000     H          0.46770100000000003           
         H19       1.0000    0.08140   0.12230   0.94560   Biso      1.000     H          0.469156  
         H20       1.0000    0.87250   0.93610   0.64350   Biso      1.000     H          0.19983399999999998           
         H21       1.0000    0.71440   0.90000   0.69580   Biso      1.000     H          0.17811   
         H22       1.0000    0.77510   0.90140   0.97870   Biso      1.000     H          0.46775200000000006           
         H23       1.0000    0.69430   0.95840   0.23500   Biso      1.000     H          0.170213  
         H24       1.0000    0.49110   0.96300   0.26800   Biso      1.000     H          0.19556500000000002           
         Ni1       1.0000    0.22202   0.73529   0.70571   Biso      1.000     Ni          0.7490060000000001  
         Ni2       1.0000    0.22202   0.76471   0.20571   Biso      1.000     Ni          0.748938  
         Ni3       1.0000    0.77798   0.26471   0.29429   Biso      1.000     Ni          0.749237  
         Ni4       1.0000    0.77798   0.23529   0.79429   Biso      1.000     Ni          0.748708  
         O1        1.0000    0.86460   0.33365   0.71529   Biso      1.000     O          -0.6016640000000001           
         O2        1.0000    0.49940   0.26900   0.21955   Biso      1.000     O          -0.54565  
         O3        1.0000    0.20900   0.33440   0.16250   Biso      1.000     O          -0.557508           
         O4        1.0000    0.35290   0.20650   0.42710   Biso      1.000     O          -0.586629           
         O5        1.0000    0.69010   0.35987   0.37645   Biso      1.000     O          -0.5901810000000001           
         O6        1.0000    0.02100   0.46174   0.68917   Biso      1.000     O          -0.626008           
         O7        1.0000    0.88550   0.91616   0.01241   Biso      1.000     O          -0.920572           
         O8        1.0000    0.49370   0.46958   0.41211   Biso      1.000     O          -0.707009           
         O9        1.0000    0.05390   0.23940   0.87197   Biso      1.000     O          -0.560242           
         O10       1.0000    0.13540   0.83365   0.78471   Biso      1.000     O          -0.601603           
         O11       1.0000    0.88550   0.58384   0.51241   Biso      1.000     O          -0.920587           
         O12       1.0000    0.30990   0.85987   0.12355   Biso      1.000     O          -0.590202           
         O13       1.0000    0.50630   0.96958   0.08789   Biso      1.000     O          -0.707101           
         O14       1.0000    0.79100   0.83440   0.33750   Biso      1.000     O          -0.557765           
         O15       1.0000    0.94610   0.73940   0.62803   Biso      1.000     O          -0.560138           
         O16       1.0000    0.97900   0.96174   0.81083   Biso      1.000     O          -0.625788           
         O17       1.0000    0.50060   0.76900   0.28045   Biso      1.000     O          -0.545792           
         O18       1.0000    0.35290   0.29350   0.92710   Biso      1.000     O          -0.5871850000000001           
         O19       1.0000    0.05390   0.26060   0.37197   Biso      1.000     O          -0.5599890000000001           
         O20       1.0000    0.11450   0.08384   0.98759   Biso      1.000     O          -0.920609           
         O21       1.0000    0.86460   0.16635   0.21529   Biso      1.000     O          -0.601507           
         O22       1.0000    0.64710   0.79350   0.57290   Biso      1.000     O          -0.586966           
         O23       1.0000    0.30990   0.64013   0.62355   Biso      1.000     O          -0.590252           
         O24       1.0000    0.50630   0.53042   0.58789   Biso      1.000     O          -0.707167           
         O25       1.0000    0.79100   0.66560   0.83750   Biso      1.000     O          -0.557792           
         O26       1.0000    0.50060   0.73100   0.78045   Biso      1.000     O          -0.5458069999999999           
         O27       1.0000    0.02100   0.03826   0.18917   Biso      1.000     O          -0.625684           
         O28       1.0000    0.97900   0.53826   0.31083   Biso      1.000     O          -0.6259020000000001           
         O29       1.0000    0.13540   0.66635   0.28471   Biso      1.000     O          -0.601567           
         O30       1.0000    0.64710   0.70650   0.07290   Biso      1.000     O          -0.586846           
         O31       1.0000    0.11450   0.41616   0.48759   Biso      1.000     O          -0.9205530000000001           
         O32       1.0000    0.69010   0.14013   0.87645   Biso      1.000     O          -0.590277           
         O33       1.0000    0.49370   0.03042   0.91211   Biso      1.000     O          -0.707262           
         O34       1.0000    0.20900   0.16560   0.66250   Biso      1.000     O          -0.55807  
         O35       1.0000    0.49940   0.23100   0.71955   Biso      1.000     O          -0.545952           
         O36       1.0000    0.94610   0.76060   0.12803   Biso      1.000     O          -0.560096           
         Sr1       1.0000    0.23083   0.91527   0.95173   Biso      1.000     Sr          1.518137  
         Sr2       1.0000    0.76917   0.41527   0.54827   Biso      1.000     Sr          1.518126  
         Sr3       1.0000    0.76917   0.08473   0.04827   Biso      1.000     Sr          1.5181200000000001  
         Sr4       1.0000    0.23083   0.58473   0.45173   Biso      1.000     Sr          1.51811 