
##########################################################################
#               Crystallographic Information Format file
#               Produced by PyCifRW module
#
#  This is a CIF file.  CIF has been adopted by the International
#  Union of Crystallography as the standard for data archiving and
#  transmission.
#
#  For information on this file format, follow the CIF links at
#  http://www.iucr.org
##########################################################################

data_image0

_cell_length_a                          13.392
_cell_length_b                          13.872
_cell_length_c                          22.211
_cell_angle_alpha                       74.977
_cell_angle_beta                        89.016
_cell_angle_gamma                       76.276
_symmetry_space_group_name_H-M          'P 1'
_symmetry_int_tables_number             1
loop_
  _symmetry_equiv_pos_as_xyz
         'x, y, z' 
loop_
  _atom_site_label
  _atom_site_occupancy
  _atom_site_fract_x
  _atom_site_fract_y
  _atom_site_fract_z
  _atom_site_thermal_displace_type
  _atom_site_B_iso_or_equiv
  _atom_site_type_symbol
  _atom_site_charge
         C1        1.0000    0.98660   0.83900   0.72670   Biso      1.000     C          0.656635  
         C2        1.0000    0.57690   0.43800   0.29380   Biso      1.000     C          -0.122766           
         C3        1.0000    0.68370   0.41070   0.29340   Biso      1.000     C          -0.149766           
         C4        1.0000    0.73420   0.31220   0.28800   Biso      1.000     C          0.091912  
         C5        1.0000    0.84200   0.28430   0.28390   Biso      1.000     C          -0.176795           
         C6        1.0000    0.88990   0.18730   0.27600   Biso      1.000     C          -0.04884  
         C7        1.0000    0.83230   0.11450   0.27420   Biso      1.000     C          -0.110299           
         C8        1.0000    0.51520   0.36650   0.29250   Biso      1.000     C          -0.066035           
         C9        1.0000    0.72640   0.14190   0.27530   Biso      1.000     C          -0.143233           
         C10       1.0000    0.56570   0.26870   0.28680   Biso      1.000     C          -0.160145           
         C11       1.0000    0.10920   0.52900   0.15840   Biso      1.000     C          0.644036  
         C12       1.0000    0.05910   0.53490   0.09880   Biso      1.000     C          -0.021287           
         C13       1.0000    0.07860   0.44920   0.07470   Biso      1.000     C          -0.150716           
         C14       1.0000    0.03220   0.45710   0.01750   Biso      1.000     C          0.090777  
         C15       1.0000    0.94900   0.63230   0.00790   Biso      1.000     C          -0.14098  
         C16       1.0000    0.67500   0.23860   0.28360   Biso      1.000     C          0.077702  
         C17       1.0000    0.39800   0.39830   0.29430   Biso      1.000     C          0.677157  
         C18       1.0000    0.56910   0.91790   0.57960   Biso      1.000     C          -0.174851           
         C19       1.0000    0.49470   0.95510   0.51910   Biso      1.000     C          0.088409  
         C20       1.0000    0.92250   0.06490   0.88980   Biso      1.000     C          -0.016025           
         C21       1.0000    0.93560   0.11020   0.93750   Biso      1.000     C          -0.165487           
         C22       1.0000    0.98220   0.05460   0.99400   Biso      1.000     C          0.092805  
         C23       1.0000    0.00690   0.90160   0.95770   Biso      1.000     C          -0.151518           
         C24       1.0000    0.96270   0.95700   0.89980   Biso      1.000     C          -0.1072   
         C25       1.0000    0.75270   0.30910   0.59190   Biso      1.000     C          0.633066  
         C26       1.0000    0.66330   0.37450   0.55110   Biso      1.000     C          -0.024932           
         C27       1.0000    0.59420   0.45260   0.56710   Biso      1.000     C          -0.149868           
         C28       1.0000    0.50790   0.51280   0.52870   Biso      1.000     C          0.087025  
         C29       1.0000    0.56660   0.40840   0.45470   Biso      1.000     C          -0.137989           
         C30       1.0000    0.64830   0.35280   0.49340   Biso      1.000     C          -0.106158           
         C31       1.0000    0.71260   0.94660   0.63640   Biso      1.000     C          0.6722    
         C32       1.0000    0.63030   0.97420   0.58600   Biso      1.000     C          -0.051324           
         C33       1.0000    0.62740   0.08180   0.53940   Biso      1.000     C          -0.10322  
         C34       1.0000    0.55720   0.10780   0.49140   Biso      1.000     C          -0.141367           
         C35       1.0000    0.99270   0.62660   0.06350   Biso      1.000     C          -0.10931  
         C36       1.0000    0.87420   0.13370   0.82750   Biso      1.000     C          0.632127  
         C37       1.0000    0.37250   0.77360   0.27130   Biso      1.000     C          0.71505   
         C38       1.0000    0.56040   0.73220   0.26050   Biso      1.000     C          -0.203301           
         C39       1.0000    0.99310   0.09840   0.04230   Biso      1.000     C          -0.151519           
         C40       1.0000    0.03730   0.04300   0.10020   Biso      1.000     C          -0.107199           
         C41       1.0000    0.24730   0.69090   0.40810   Biso      1.000     C          0.633066  
         C42       1.0000    0.33670   0.62550   0.44890   Biso      1.000     C          -0.024932           
         C43       1.0000    0.40580   0.54740   0.43290   Biso      1.000     C          -0.149868           
         C44       1.0000    0.49210   0.48720   0.47130   Biso      1.000     C          0.087024  
         C45       1.0000    0.01780   0.94540   0.00600   Biso      1.000     C          0.092795  
         C46       1.0000    0.43340   0.59160   0.54530   Biso      1.000     C          -0.137989           
         C47       1.0000    0.28740   0.05340   0.36360   Biso      1.000     C          0.672204  
         C48       1.0000    0.36970   0.02580   0.41400   Biso      1.000     C          -0.051363           
         C49       1.0000    0.37260   0.91820   0.46060   Biso      1.000     C          -0.103224           
         C50       1.0000    0.44280   0.89220   0.50860   Biso      1.000     C          -0.141318           
         C51       1.0000    0.50530   0.04490   0.48090   Biso      1.000     C          0.088468  
         C52       1.0000    0.43090   0.08210   0.42040   Biso      1.000     C          -0.174817           
         C53       1.0000    0.35170   0.64720   0.50660   Biso      1.000     C          -0.106158           
         C54       1.0000    0.06440   0.88980   0.06250   Biso      1.000     C          -0.165476           
         C55       1.0000    0.07750   0.93510   0.11020   Biso      1.000     C          -0.016027           
         C56       1.0000    0.12580   0.86630   0.17250   Biso      1.000     C          0.632127  
         C57       1.0000    0.66620   0.74310   0.26840   Biso      1.000     C          0.084678  
         C58       1.0000    0.74860   0.67650   0.24910   Biso      1.000     C          -0.157097           
         C59       1.0000    0.84750   0.68530   0.25830   Biso      1.000     C          -0.104735           
         C60       1.0000    0.86440   0.75980   0.28790   Biso      1.000     C          -0.030411           
         C61       1.0000    0.78250   0.82580   0.30660   Biso      1.000     C          -0.167113           
         C62       1.0000    0.68110   0.81800   0.29780   Biso      1.000     C          0.085288  
         C63       1.0000    0.59480   0.88470   0.31520   Biso      1.000     C          -0.151902           
         C64       1.0000    0.49850   0.87470   0.30800   Biso      1.000     C          -0.08706  
         C65       1.0000    0.06520   0.46280   0.33040   Biso      1.000     C          0.582304  
         C66       1.0000    0.02070   0.48430   0.39000   Biso      1.000     C          -0.022213           
         C67       1.0000    0.92080   0.46880   0.40640   Biso      1.000     C          -0.108882           
         C68       1.0000    0.88630   0.47500   0.46430   Biso      1.000     C          -0.124836           
         C69       1.0000    0.04900   0.50900   0.49170   Biso      1.000     C          0.088947  
         C70       1.0000    0.08070   0.50460   0.43180   Biso      1.000     C          -0.142785           
         C71       1.0000    0.97580   0.76230   0.30660   Biso      1.000     C          0.646165  
         C72       1.0000    0.47980   0.79740   0.28130   Biso      1.000     C          -0.044796           
         C73       1.0000    0.02420   0.23770   0.69340   Biso      1.000     C          0.646165  
         C74       1.0000    0.01340   0.16100   0.27330   Biso      1.000     C          0.656635  
         C75       1.0000    0.91930   0.49540   0.56820   Biso      1.000     C          -0.142796           
         C76       1.0000    0.15250   0.31470   0.74170   Biso      1.000     C          -0.104737           
         C77       1.0000    0.15800   0.71570   0.71610   Biso      1.000     C          -0.176795           
         C78       1.0000    0.11010   0.81270   0.72400   Biso      1.000     C          -0.04884  
         C79       1.0000    0.16770   0.88550   0.72580   Biso      1.000     C          -0.110299           
         C80       1.0000    0.25140   0.32350   0.75090   Biso      1.000     C          -0.157095           
         C81       1.0000    0.33380   0.25690   0.73160   Biso      1.000     C          0.084678  
         C82       1.0000    0.27360   0.85810   0.72470   Biso      1.000     C          -0.143233           
         C83       1.0000    0.32500   0.76140   0.71640   Biso      1.000     C          0.077702  
         C84       1.0000    0.43960   0.26780   0.73950   Biso      1.000     C          -0.203301           
         C85       1.0000    0.43430   0.73130   0.71320   Biso      1.000     C          -0.160144           
         C86       1.0000    0.52020   0.20260   0.71870   Biso      1.000     C          -0.044792           
         C87       1.0000    0.89080   0.47100   0.84160   Biso      1.000     C          0.644036  
         C88       1.0000    0.62750   0.22640   0.72870   Biso      1.000     C          0.715049  
         C89       1.0000    0.94090   0.46510   0.90120   Biso      1.000     C          -0.021285           
         C90       1.0000    0.92140   0.55080   0.92530   Biso      1.000     C          -0.150717           
         C91       1.0000    0.00730   0.37340   0.93650   Biso      1.000     C          -0.109329           
         C92       1.0000    0.96780   0.54290   0.98250   Biso      1.000     C          0.090793  
         C93       1.0000    0.26580   0.68780   0.71200   Biso      1.000     C          0.091912  
         C94       1.0000    0.13560   0.24020   0.71210   Biso      1.000     C          -0.030411           
         C95       1.0000    0.05100   0.36770   0.99210   Biso      1.000     C          -0.14096  
         C96       1.0000    0.93480   0.53720   0.66960   Biso      1.000     C          0.582303  
         C97       1.0000    0.21750   0.17420   0.69340   Biso      1.000     C          -0.167113           
         C98       1.0000    0.48480   0.63350   0.70750   Biso      1.000     C          -0.066035           
         C99       1.0000    0.42310   0.56200   0.70620   Biso      1.000     C          -0.122767           
         C100      1.0000    0.50150   0.12530   0.69200   Biso      1.000     C          -0.087086           
         C101      1.0000    0.97930   0.51570   0.61000   Biso      1.000     C          -0.022201           
         C102      1.0000    0.11370   0.52500   0.53570   Biso      1.000     C          -0.124839           
         C103      1.0000    0.60200   0.60170   0.70570   Biso      1.000     C          0.677157  
         C104      1.0000    0.31630   0.58930   0.70660   Biso      1.000     C          -0.149766           
         C105      1.0000    0.31890   0.18200   0.70220   Biso      1.000     C          0.085285  
         C106      1.0000    0.95100   0.49100   0.50830   Biso      1.000     C          0.088948  
         C107      1.0000    0.40520   0.11530   0.68480   Biso      1.000     C          -0.151876           
         C108      1.0000    0.07920   0.53120   0.59360   Biso      1.000     C          -0.108881           
         H1        1.0000    0.97840   0.68570   0.07920   Biso      1.000     H          0.12589   
         H2        1.0000    0.87700   0.61380   0.90290   Biso      1.000     H          0.122977  
         H3        1.0000    0.45490   0.82500   0.53590   Biso      1.000     H          0.1156    
         H4        1.0000    0.54780   0.68180   0.24170   Biso      1.000     H          0.124679  
         H5        1.0000    0.73670   0.62620   0.23000   Biso      1.000     H          0.119487  
         H6        1.0000    0.32910   0.87550   0.45550   Biso      1.000     H          0.128739  
         H7        1.0000    0.90550   0.69540   0.98500   Biso      1.000     H          0.119604  
         H8        1.0000    0.90420   0.64140   0.24490   Biso      1.000     H          0.120255  
         H9        1.0000    0.47400   0.77900   0.71490   Biso      1.000     H          0.126089  
         H10       1.0000    0.79480   0.87640   0.32540   Biso      1.000     H          0.124219  
         H11       1.0000    0.04090   0.07570   0.13240   Biso      1.000     H          0.132873  
         H12       1.0000    0.60520   0.93780   0.33240   Biso      1.000     H          0.112452  
         H13       1.0000    0.44220   0.91980   0.32090   Biso      1.000     H          0.112099  
         H14       1.0000    0.31240   0.90500   0.72950   Biso      1.000     H          0.119263  
         H15       1.0000    0.44110   0.60550   0.58450   Biso      1.000     H          0.110925  
         H16       1.0000    0.87860   0.45440   0.37750   Biso      1.000     H          0.119301  
         H17       1.0000    0.13350   0.95280   0.72780   Biso      1.000     H          0.11762   
         H18       1.0000    0.81870   0.46830   0.47470   Biso      1.000     H          0.117391  
         H19       1.0000    0.45640   0.49400   0.70500   Biso      1.000     H          0.10975   
         H20       1.0000    0.85370   0.48380   0.58010   Biso      1.000     H          0.123903  
         H21       1.0000    0.39500   0.53340   0.39420   Biso      1.000     H          0.120814  
         H22       1.0000    0.11800   0.66880   0.71350   Biso      1.000     H          0.13675   
         H23       1.0000    0.08900   0.81750   0.06970   Biso      1.000     H          0.120307  
         H24       1.0000    0.96860   0.17080   0.03500   Biso      1.000     H          0.106477  
         H25       1.0000    0.27760   0.54160   0.70330   Biso      1.000     H          0.120619  
         H26       1.0000    0.30390   0.70130   0.51800   Biso      1.000     H          0.12343   
         H27       1.0000    0.14630   0.51620   0.41990   Biso      1.000     H          0.123902  
         H28       1.0000    0.12300   0.38620   0.09710   Biso      1.000     H          0.122977  
         H29       1.0000    0.69610   0.29870   0.48200   Biso      1.000     H          0.12343   
         H30       1.0000    0.72240   0.45840   0.29670   Biso      1.000     H          0.120619  
         H31       1.0000    0.88200   0.33120   0.28650   Biso      1.000     H          0.13675   
         H32       1.0000    0.09580   0.35860   0.75510   Biso      1.000     H          0.120255  
         H33       1.0000    0.54510   0.17500   0.46410   Biso      1.000     H          0.115604  
         H34       1.0000    0.45220   0.31820   0.75830   Biso      1.000     H          0.124679  
         H35       1.0000    0.67090   0.12450   0.54450   Biso      1.000     H          0.128739  
         H36       1.0000    0.86650   0.04720   0.27220   Biso      1.000     H          0.11762   
         H37       1.0000    0.20520   0.12360   0.67460   Biso      1.000     H          0.124219  
         H38       1.0000    0.26330   0.37380   0.77000   Biso      1.000     H          0.119487  
         H39       1.0000    0.55890   0.39450   0.41550   Biso      1.000     H          0.110925  
         H40       1.0000    0.68760   0.09500   0.27050   Biso      1.000     H          0.119263  
         H41       1.0000    0.56870   0.85600   0.61030   Biso      1.000     H          0.130428  
         H42       1.0000    0.39480   0.06220   0.66760   Biso      1.000     H          0.11245   
         H43       1.0000    0.60500   0.46660   0.60580   Biso      1.000     H          0.120814  
         H44       1.0000    0.55780   0.08020   0.67910   Biso      1.000     H          0.1121    
         H45       1.0000    0.54360   0.50600   0.29500   Biso      1.000     H          0.10975   
         H46       1.0000    0.95910   0.92430   0.86760   Biso      1.000     H          0.132873  
         H47       1.0000    0.52600   0.22100   0.28510   Biso      1.000     H          0.126089  
         H48       1.0000    0.03140   0.82920   0.96500   Biso      1.000     H          0.106476  
         H49       1.0000    0.12140   0.54560   0.62250   Biso      1.000     H          0.119301  
         H50       1.0000    0.91100   0.18250   0.93030   Biso      1.000     H          0.120308  
         H51       1.0000    0.18130   0.53170   0.52530   Biso      1.000     H          0.117391  
         H52       1.0000    0.09450   0.30460   0.01500   Biso      1.000     H          0.119603  
         H53       1.0000    0.02160   0.31430   0.92080   Biso      1.000     H          0.125891  
         H54       1.0000    0.43130   0.14400   0.38970   Biso      1.000     H          0.130427  
         O1        1.0000    0.95620   0.29280   0.72120   Biso      1.000     O          -0.706393           
         O2        1.0000    0.36330   0.48230   0.30350   Biso      1.000     O          -0.669946           
         O3        1.0000    0.19720   0.77210   0.42210   Biso      1.000     O          -0.65871  
         O4        1.0000    0.63600   0.28910   0.74150   Biso      1.000     O          -0.535273           
         O5        1.0000    0.83500   0.55950   0.81240   Biso      1.000     O          -0.763586           
         O6        1.0000    0.90280   0.39030   0.82330   Biso      1.000     O          -0.609127           
         O7        1.0000    0.64360   0.66640   0.71360   Biso      1.000     O          -0.700196           
         O8        1.0000    0.63670   0.51770   0.69650   Biso      1.000     O          -0.669946           
         O9        1.0000    0.84650   0.52170   0.68370   Biso      1.000     O          -0.764246           
         O10       1.0000    0.01450   0.16600   0.67280   Biso      1.000     O          -0.648474           
         O11       1.0000    0.09720   0.60970   0.17670   Biso      1.000     O          -0.609128           
         O12       1.0000    0.35640   0.33360   0.28640   Biso      1.000     O          -0.700196           
         O13       1.0000    0.22440   0.67000   0.35880   Biso      1.000     O          -0.74119  
         O14       1.0000    0.77080   0.00690   0.63020   Biso      1.000     O          -0.670552           
         O15       1.0000    0.28290   0.13140   0.31830   Biso      1.000     O          -0.732018           
         O16       1.0000    0.69860   0.14970   0.71090   Biso      1.000     O          -0.815653           
         O17       1.0000    0.30140   0.85030   0.28910   Biso      1.000     O          -0.815654           
         O18       1.0000    0.01990   0.41570   0.30080   Biso      1.000     O          -0.600731           
         O19       1.0000    0.22920   0.99310   0.36980   Biso      1.000     O          -0.670551           
         O20       1.0000    0.71710   0.86860   0.68170   Biso      1.000     O          -0.732017           
         O21       1.0000    0.10410   0.91730   0.21890   Biso      1.000     O          -0.707859           
         O22       1.0000    0.05030   0.23560   0.26030   Biso      1.000     O          -0.686697           
         O23       1.0000    0.04680   0.07440   0.26810   Biso      1.000     O          -0.642001           
         O24       1.0000    0.94970   0.76440   0.73970   Biso      1.000     O          -0.686697           
         O25       1.0000    0.80280   0.22790   0.57790   Biso      1.000     O          -0.65871  
         O26       1.0000    0.77560   0.33000   0.64120   Biso      1.000     O          -0.741189           
         O27       1.0000    0.81830   0.21740   0.82580   Biso      1.000     O          -0.623262           
         O28       1.0000    0.16500   0.44050   0.18760   Biso      1.000     O          -0.763586           
         O29       1.0000    0.36400   0.71090   0.25850   Biso      1.000     O          -0.535273           
         O30       1.0000    0.18170   0.78260   0.17420   Biso      1.000     O          -0.623262           
         O31       1.0000    0.15350   0.47830   0.31630   Biso      1.000     O          -0.764246           
         O32       1.0000    0.89590   0.08270   0.78110   Biso      1.000     O          -0.707859           
         O33       1.0000    0.98010   0.58430   0.69920   Biso      1.000     O          -0.600731           
         O34       1.0000    0.95320   0.92560   0.73190   Biso      1.000     O          -0.642001           
         O35       1.0000    0.98550   0.83400   0.32720   Biso      1.000     O          -0.648474           
         O36       1.0000    0.04380   0.70720   0.27880   Biso      1.000     O          -0.706393           
         Pr1       1.0000    0.86854   0.09806   0.67511   Biso      1.000     Pr          2.101752  
         Pr2       1.0000    0.21734   0.62698   0.25815   Biso      1.000     Pr          2.20184   
         Pr3       1.0000    0.81226   0.69439   0.72399   Biso      1.000     Pr          2.139278  
         Pr4       1.0000    0.18774   0.30561   0.27601   Biso      1.000     Pr          2.139278  
         Pr5       1.0000    0.13146   0.90194   0.32489   Biso      1.000     Pr          2.101752  
         Pr6       1.0000    0.78266   0.37302   0.74185   Biso      1.000     Pr          2.201839 