
##########################################################################
#               Crystallographic Information Format file
#               Produced by PyCifRW module
#
#  This is a CIF file.  CIF has been adopted by the International
#  Union of Crystallography as the standard for data archiving and
#  transmission.
#
#  For information on this file format, follow the CIF links at
#  http://www.iucr.org
##########################################################################

data_image0

_cell_length_a                          24.8718
_cell_length_b                          13.7591
_cell_length_c                          13.6832
_cell_angle_alpha                       90
_cell_angle_beta                        98.949
_cell_angle_gamma                       90
_symmetry_space_group_name_H-M          'P 1'
_symmetry_int_tables_number             1
loop_
  _symmetry_equiv_pos_as_xyz
         'x, y, z' 
loop_
  _atom_site_label
  _atom_site_occupancy
  _atom_site_fract_x
  _atom_site_fract_y
  _atom_site_fract_z
  _atom_site_thermal_displace_type
  _atom_site_B_iso_or_equiv
  _atom_site_type_symbol
  _atom_site_charge
         C1        1.0000    0.83883   0.52469   0.09998   Biso      1.000     C          -0.161082           
         C2        1.0000    0.48790   0.90952   0.91298   Biso      1.000     C          -0.093261           
         C3        1.0000    0.78493   0.50987   0.11314   Biso      1.000     C          -0.021365           
         C4        1.0000    0.53703   0.94110   0.88877   Biso      1.000     C          -0.149622           
         C5        1.0000    0.57611   0.87343   0.87304   Biso      1.000     C          0.086636  
         C6        1.0000    0.53703   0.05890   0.38877   Biso      1.000     C          -0.149623           
         C7        1.0000    0.56421   0.77560   0.88260   Biso      1.000     C          -0.152092           
         C8        1.0000    0.51509   0.74410   0.90720   Biso      1.000     C          -0.096945           
         C9        1.0000    0.47661   0.81325   0.92455   Biso      1.000     C          -0.028584           
         C10       1.0000    0.42555   0.78171   0.96206   Biso      1.000     C          0.585161  
         C11       1.0000    0.48790   0.09048   0.41298   Biso      1.000     C          -0.09326  
         C12       1.0000    0.51210   0.09048   0.08702   Biso      1.000     C          -0.093261           
         C13       1.0000    0.63128   0.09924   0.35106   Biso      1.000     C          0.080656  
         C14       1.0000    0.36872   0.09924   0.14894   Biso      1.000     C          0.080656  
         C15       1.0000    0.57611   0.12657   0.37304   Biso      1.000     C          0.086636  
         C16       1.0000    0.34673   0.15354   0.21905   Biso      1.000     C          -0.147157           
         C17       1.0000    0.24955   0.56796   0.94081   Biso      1.000     C          0.650406  
         C18       1.0000    0.22852   0.30586   0.68486   Biso      1.000     C          0.674797  
         C19       1.0000    0.16117   0.47531   0.90002   Biso      1.000     C          -0.161082           
         C20       1.0000    0.21507   0.49013   0.88686   Biso      1.000     C          -0.021365           
         C21       1.0000    0.70685   0.13738   0.26459   Biso      1.000     C          -0.018705           
         C22       1.0000    0.23788   0.43227   0.82109   Biso      1.000     C          -0.115063           
         C23       1.0000    0.20685   0.36262   0.76459   Biso      1.000     C          -0.018704           
         C24       1.0000    0.73788   0.06773   0.32109   Biso      1.000     C          -0.115064           
         C25       1.0000    0.15327   0.34646   0.78095   Biso      1.000     C          -0.147157           
         C26       1.0000    0.13128   0.40076   0.85106   Biso      1.000     C          0.080658  
         C27       1.0000    0.98790   0.40952   0.91298   Biso      1.000     C          -0.093261           
         C28       1.0000    0.16117   0.52469   0.40002   Biso      1.000     C          -0.161082           
         C29       1.0000    0.03703   0.44110   0.88877   Biso      1.000     C          -0.149621           
         C30       1.0000    0.65327   0.15354   0.28095   Biso      1.000     C          -0.147157           
         C31       1.0000    0.07611   0.37343   0.87304   Biso      1.000     C          0.086636  
         C32       1.0000    0.63128   0.90076   0.85106   Biso      1.000     C          0.080656  
         C33       1.0000    0.70685   0.86262   0.76459   Biso      1.000     C          -0.018705           
         C34       1.0000    0.23788   0.56773   0.32109   Biso      1.000     C          -0.115065           
         C35       1.0000    0.20685   0.63738   0.26459   Biso      1.000     C          -0.018704           
         C36       1.0000    0.15327   0.65354   0.28095   Biso      1.000     C          -0.147157           
         C37       1.0000    0.13128   0.59924   0.35106   Biso      1.000     C          0.080658  
         C38       1.0000    0.22852   0.69414   0.18486   Biso      1.000     C          0.674797  
         C39       1.0000    0.98790   0.59048   0.41298   Biso      1.000     C          -0.093261           
         C40       1.0000    0.24955   0.43204   0.44081   Biso      1.000     C          0.650406  
         C41       1.0000    0.03703   0.55890   0.38877   Biso      1.000     C          -0.149621           
         C42       1.0000    0.07611   0.62657   0.37304   Biso      1.000     C          0.086636  
         C43       1.0000    0.52339   0.18675   0.07545   Biso      1.000     C          -0.028584           
         C44       1.0000    0.06421   0.72440   0.38260   Biso      1.000     C          -0.152092           
         C45       1.0000    0.57445   0.21829   0.03794   Biso      1.000     C          0.585161  
         C46       1.0000    0.01509   0.75590   0.40720   Biso      1.000     C          -0.096945           
         C47       1.0000    0.65327   0.84646   0.78095   Biso      1.000     C          -0.147157           
         C48       1.0000    0.97661   0.68675   0.42455   Biso      1.000     C          -0.028584           
         C49       1.0000    0.42555   0.21829   0.46206   Biso      1.000     C          0.58516   
         C50       1.0000    0.48491   0.25590   0.09280   Biso      1.000     C          -0.096945           
         C51       1.0000    0.47661   0.18675   0.42455   Biso      1.000     C          -0.028584           
         C52       1.0000    0.43579   0.22440   0.11740   Biso      1.000     C          -0.152093           
         C53       1.0000    0.51509   0.25590   0.40720   Biso      1.000     C          -0.096945           
         C54       1.0000    0.42389   0.12657   0.12696   Biso      1.000     C          0.086636  
         C55       1.0000    0.46297   0.05890   0.11123   Biso      1.000     C          -0.14962  
         C56       1.0000    0.74955   0.06796   0.94081   Biso      1.000     C          0.650406  
         C57       1.0000    0.72852   0.80586   0.68486   Biso      1.000     C          0.674797  
         C58       1.0000    0.66117   0.97531   0.90002   Biso      1.000     C          -0.16108  
         C59       1.0000    0.71507   0.99013   0.88686   Biso      1.000     C          -0.021365           
         C60       1.0000    0.56421   0.22440   0.38260   Biso      1.000     C          -0.152092           
         C61       1.0000    0.73788   0.93227   0.82109   Biso      1.000     C          -0.115062           
         C62       1.0000    0.92555   0.71829   0.46206   Biso      1.000     C          0.58516   
         C63       1.0000    0.66117   0.02469   0.40002   Biso      1.000     C          -0.16108  
         C64       1.0000    0.71507   0.00987   0.38686   Biso      1.000     C          -0.021363           
         C65       1.0000    0.52339   0.81325   0.57545   Biso      1.000     C          -0.028594           
         C66       1.0000    0.48491   0.74410   0.59280   Biso      1.000     C          -0.096944           
         C67       1.0000    0.06421   0.27560   0.88260   Biso      1.000     C          -0.152092           
         C68       1.0000    0.57445   0.78171   0.53794   Biso      1.000     C          0.585161  
         C69       1.0000    0.27148   0.19414   0.31514   Biso      1.000     C          0.674796  
         C70       1.0000    0.25045   0.93204   0.05919   Biso      1.000     C          0.650406  
         C71       1.0000    0.92389   0.62657   0.12696   Biso      1.000     C          0.086635  
         C72       1.0000    0.96297   0.55890   0.11123   Biso      1.000     C          -0.149621           
         C73       1.0000    0.01210   0.59048   0.08702   Biso      1.000     C          -0.09326  
         C74       1.0000    0.75045   0.56796   0.55919   Biso      1.000     C          0.650406  
         C75       1.0000    0.77148   0.30586   0.81514   Biso      1.000     C          0.674797  
         C76       1.0000    0.83883   0.47531   0.59998   Biso      1.000     C          -0.161082           
         C77       1.0000    0.78493   0.49013   0.61314   Biso      1.000     C          -0.021365           
         C78       1.0000    0.86872   0.59924   0.14894   Biso      1.000     C          0.080658  
         C79       1.0000    0.76212   0.43227   0.67891   Biso      1.000     C          -0.115063           
         C80       1.0000    0.79315   0.36262   0.73541   Biso      1.000     C          -0.018704           
         C81       1.0000    0.84673   0.65354   0.21905   Biso      1.000     C          -0.147157           
         C82       1.0000    0.84673   0.34646   0.71905   Biso      1.000     C          -0.147157           
         C83       1.0000    0.86872   0.40076   0.64894   Biso      1.000     C          0.080658  
         C84       1.0000    0.01210   0.40952   0.58702   Biso      1.000     C          -0.093261           
         C85       1.0000    0.79315   0.63738   0.23541   Biso      1.000     C          -0.018705           
         C86       1.0000    0.96297   0.44110   0.61123   Biso      1.000     C          -0.149621           
         C87       1.0000    0.92389   0.37343   0.62696   Biso      1.000     C          0.086636  
         C88       1.0000    0.76212   0.56773   0.17891   Biso      1.000     C          -0.115062           
         C89       1.0000    0.93579   0.27560   0.61740   Biso      1.000     C          -0.152092           
         C90       1.0000    0.98491   0.24410   0.59280   Biso      1.000     C          -0.096945           
         C91       1.0000    0.02339   0.31325   0.57545   Biso      1.000     C          -0.028584           
         C92       1.0000    0.07445   0.28171   0.53794   Biso      1.000     C          0.585161  
         C93       1.0000    0.93579   0.72440   0.11740   Biso      1.000     C          -0.152092           
         C94       1.0000    0.43579   0.77560   0.61740   Biso      1.000     C          -0.152093           
         C95       1.0000    0.21507   0.50987   0.38686   Biso      1.000     C          -0.021363           
         C96       1.0000    0.33883   0.97531   0.59998   Biso      1.000     C          -0.161081           
         C97       1.0000    0.33883   0.02469   0.09998   Biso      1.000     C          -0.16108  
         C98       1.0000    0.75045   0.43204   0.05919   Biso      1.000     C          0.650406  
         C99       1.0000    0.25045   0.06796   0.55919   Biso      1.000     C          0.650406  
         C100      1.0000    0.27148   0.80586   0.81514   Biso      1.000     C          0.674797  
         C101      1.0000    0.26212   0.06773   0.17891   Biso      1.000     C          -0.115065           
         C102      1.0000    0.77148   0.69414   0.31514   Biso      1.000     C          0.674797  
         C103      1.0000    0.42389   0.87343   0.62696   Biso      1.000     C          0.086636  
         C104      1.0000    0.28493   0.99013   0.61314   Biso      1.000     C          -0.021365           
         C105      1.0000    0.29315   0.13738   0.23541   Biso      1.000     C          -0.018704           
         C106      1.0000    0.26212   0.93227   0.67891   Biso      1.000     C          -0.115063           
         C107      1.0000    0.29315   0.86262   0.73541   Biso      1.000     C          -0.018704           
         C108      1.0000    0.74955   0.93204   0.44081   Biso      1.000     C          0.650406  
         C109      1.0000    0.72852   0.19414   0.18486   Biso      1.000     C          0.674797  
         C110      1.0000    0.07445   0.71829   0.03794   Biso      1.000     C          0.585161  
         C111      1.0000    0.92555   0.28171   0.96206   Biso      1.000     C          0.58516   
         C112      1.0000    0.34673   0.84646   0.71905   Biso      1.000     C          -0.147157           
         C113      1.0000    0.36872   0.90076   0.64894   Biso      1.000     C          0.080658  
         C114      1.0000    0.97661   0.31325   0.92455   Biso      1.000     C          -0.028584           
         C115      1.0000    0.02339   0.68675   0.07545   Biso      1.000     C          -0.028584           
         C116      1.0000    0.51210   0.90952   0.58702   Biso      1.000     C          -0.093252           
         C117      1.0000    0.01509   0.24410   0.90720   Biso      1.000     C          -0.096945           
         C118      1.0000    0.98491   0.75590   0.09280   Biso      1.000     C          -0.096945           
         C119      1.0000    0.46297   0.94110   0.61123   Biso      1.000     C          -0.149621           
         C120      1.0000    0.28493   0.00987   0.11314   Biso      1.000     C          -0.021363           
         H1        1.0000    0.77430   0.05980   0.31480   Biso      1.000     H          0.13197   
         H2        1.0000    0.14540   0.48410   0.44190   Biso      1.000     H          0.129415  
         H3        1.0000    0.72570   0.55980   0.18520   Biso      1.000     H          0.13197   
         H4        1.0000    0.99210   0.82200   0.08800   Biso      1.000     H          0.125688  
         H5        1.0000    0.63220   0.20090   0.24470   Biso      1.000     H          0.126906  
         H6        1.0000    0.03840   0.54460   0.07830   Biso      1.000     H          0.111918  
         H7        1.0000    0.85460   0.48410   0.05810   Biso      1.000     H          0.129415  
         H8        1.0000    0.95620   0.49280   0.11690   Biso      1.000     H          0.118793  
         H9        1.0000    0.50790   0.32200   0.41200   Biso      1.000     H          0.125688  
         H10       1.0000    0.46160   0.04460   0.42170   Biso      1.000     H          0.111918  
         H11       1.0000    0.90990   0.77040   0.12790   Biso      1.000     H          0.117231  
         H12       1.0000    0.59010   0.27040   0.37210   Biso      1.000     H          0.117231  
         H13       1.0000    0.54380   0.99280   0.38310   Biso      1.000     H          0.118793  
         H14       1.0000    0.86780   0.70090   0.25530   Biso      1.000     H          0.126906  
         H15       1.0000    0.64540   0.98410   0.44190   Biso      1.000     H          0.129415  
         H16       1.0000    0.54380   0.00720   0.88310   Biso      1.000     H          0.118793  
         H17       1.0000    0.13220   0.70090   0.24470   Biso      1.000     H          0.126906  
         H18       1.0000    0.96160   0.45540   0.92170   Biso      1.000     H          0.111918  
         H19       1.0000    0.04380   0.50720   0.88310   Biso      1.000     H          0.118793  
         H20       1.0000    0.27430   0.55980   0.31480   Biso      1.000     H          0.13197   
         H21       1.0000    0.00790   0.17800   0.91200   Biso      1.000     H          0.125688  
         H22       1.0000    0.22570   0.05980   0.18520   Biso      1.000     H          0.13197   
         H23       1.0000    0.35460   0.98410   0.05810   Biso      1.000     H          0.129415  
         H24       1.0000    0.35460   0.01590   0.55810   Biso      1.000     H          0.129415  
         H25       1.0000    0.22570   0.94020   0.68520   Biso      1.000     H          0.13197   
         H26       1.0000    0.36780   0.79910   0.75530   Biso      1.000     H          0.126906  
         H27       1.0000    0.13220   0.29910   0.74470   Biso      1.000     H          0.126906  
         H28       1.0000    0.53840   0.95540   0.57830   Biso      1.000     H          0.111918  
         H29       1.0000    0.40990   0.72960   0.62790   Biso      1.000     H          0.117231  
         H30       1.0000    0.49210   0.67800   0.58800   Biso      1.000     H          0.125688  
         H31       1.0000    0.85460   0.51590   0.55810   Biso      1.000     H          0.129415  
         H32       1.0000    0.72570   0.44020   0.68520   Biso      1.000     H          0.13197   
         H33       1.0000    0.86780   0.29910   0.75530   Biso      1.000     H          0.126906  
         H34       1.0000    0.03840   0.45540   0.57830   Biso      1.000     H          0.111918  
         H35       1.0000    0.95620   0.50720   0.61690   Biso      1.000     H          0.118793  
         H36       1.0000    0.90990   0.22960   0.62790   Biso      1.000     H          0.117231  
         H37       1.0000    0.99210   0.17800   0.58800   Biso      1.000     H          0.125687  
         H38       1.0000    0.45620   0.00720   0.61690   Biso      1.000     H          0.118793  
         H39       1.0000    0.27430   0.44020   0.81480   Biso      1.000     H          0.13197   
         H40       1.0000    0.09010   0.22960   0.87210   Biso      1.000     H          0.117231  
         H41       1.0000    0.36780   0.20090   0.25530   Biso      1.000     H          0.126906  
         H42       1.0000    0.96160   0.54460   0.42170   Biso      1.000     H          0.111918  
         H43       1.0000    0.04380   0.49280   0.38310   Biso      1.000     H          0.118793  
         H44       1.0000    0.09010   0.77040   0.37210   Biso      1.000     H          0.117231  
         H45       1.0000    0.00790   0.82200   0.41200   Biso      1.000     H          0.125687  
         H46       1.0000    0.14540   0.51590   0.94190   Biso      1.000     H          0.129415  
         H47       1.0000    0.40990   0.27040   0.12790   Biso      1.000     H          0.117231  
         H48       1.0000    0.64540   0.01590   0.94190   Biso      1.000     H          0.129415  
         H49       1.0000    0.77430   0.94020   0.81480   Biso      1.000     H          0.13197   
         H50       1.0000    0.63220   0.79910   0.74470   Biso      1.000     H          0.126906  
         H51       1.0000    0.49210   0.32200   0.08800   Biso      1.000     H          0.125687  
         H52       1.0000    0.53840   0.04460   0.07830   Biso      1.000     H          0.111918  
         H53       1.0000    0.46160   0.95540   0.92170   Biso      1.000     H          0.111918  
         H54       1.0000    0.59010   0.72960   0.87210   Biso      1.000     H          0.117231  
         H55       1.0000    0.45620   0.99280   0.11690   Biso      1.000     H          0.118793  
         H56       1.0000    0.50790   0.67800   0.91200   Biso      1.000     H          0.125687  
         Nd1       1.0000    0.16993   0.21598   0.46114   Biso      1.000     Nd          2.072062  
         Nd2       1.0000    0.16993   0.78402   0.96114   Biso      1.000     Nd          2.072061  
         Nd3       1.0000    0.83007   0.21598   0.03886   Biso      1.000     Nd          2.072062  
         Nd4       1.0000    0.83007   0.78402   0.53886   Biso      1.000     Nd          2.072062  
         Nd5       1.0000    0.33007   0.28402   0.53886   Biso      1.000     Nd          2.072062  
         Nd6       1.0000    0.66993   0.71598   0.46114   Biso      1.000     Nd          2.072062  
         Nd7       1.0000    0.33007   0.71598   0.03886   Biso      1.000     Nd          2.072061  
         Nd8       1.0000    0.66993   0.28402   0.96114   Biso      1.000     Nd          2.072061  
         O1        1.0000    0.80151   0.75373   0.36159   Biso      1.000     O          -0.61871  
         O2        1.0000    0.08320   0.80830   0.02801   Biso      1.000     O          -0.672731           
         O3        1.0000    0.19943   0.94254   0.04456   Biso      1.000     O          -0.608557           
         O4        1.0000    0.27221   0.85712   0.02902   Biso      1.000     O          -0.754894           
         O5        1.0000    0.10647   0.65531   0.01580   Biso      1.000     O          -0.643196           
         O6        1.0000    0.60647   0.15531   0.01580   Biso      1.000     O          -0.643196           
         O7        1.0000    0.69943   0.44254   0.04456   Biso      1.000     O          -0.608557           
         O8        1.0000    0.77221   0.35712   0.02902   Biso      1.000     O          -0.754894           
         O9        1.0000    0.72277   0.67426   0.32768   Biso      1.000     O          -0.729677           
         O10       1.0000    0.58320   0.30830   0.02801   Biso      1.000     O          -0.672731           
         O11       1.0000    0.69849   0.74627   0.63841   Biso      1.000     O          -0.61871  
         O12       1.0000    0.77723   0.17426   0.17232   Biso      1.000     O          -0.729677           
         O13       1.0000    0.22779   0.64288   0.97098   Biso      1.000     O          -0.754894           
         O14       1.0000    0.91680   0.19170   0.97199   Biso      1.000     O          -0.672731           
         O15       1.0000    0.89353   0.34469   0.98420   Biso      1.000     O          -0.643196           
         O16       1.0000    0.30151   0.74627   0.86159   Biso      1.000     O          -0.61871  
         O17       1.0000    0.22277   0.82574   0.82768   Biso      1.000     O          -0.729677           
         O18       1.0000    0.19943   0.05746   0.54456   Biso      1.000     O          -0.608557           
         O19       1.0000    0.27221   0.14288   0.52902   Biso      1.000     O          -0.754894           
         O20       1.0000    0.58320   0.69170   0.52801   Biso      1.000     O          -0.672731           
         O21       1.0000    0.60647   0.84469   0.51580   Biso      1.000     O          -0.643197           
         O22       1.0000    0.80151   0.24627   0.86159   Biso      1.000     O          -0.61871  
         O23       1.0000    0.72277   0.32574   0.82768   Biso      1.000     O          -0.729677           
         O24       1.0000    0.69943   0.55746   0.54456   Biso      1.000     O          -0.608557           
         O25       1.0000    0.77221   0.64288   0.52902   Biso      1.000     O          -0.754894           
         O26       1.0000    0.08320   0.19170   0.52801   Biso      1.000     O          -0.672731           
         O27       1.0000    0.10647   0.34469   0.51580   Biso      1.000     O          -0.643196           
         O28       1.0000    0.30057   0.55746   0.95544   Biso      1.000     O          -0.608557           
         O29       1.0000    0.69849   0.25373   0.13841   Biso      1.000     O          -0.61871  
         O30       1.0000    0.27723   0.32574   0.67232   Biso      1.000     O          -0.729677           
         O31       1.0000    0.39353   0.84469   0.98420   Biso      1.000     O          -0.643196           
         O32       1.0000    0.80057   0.94254   0.45544   Biso      1.000     O          -0.608557           
         O33       1.0000    0.72779   0.85712   0.47098   Biso      1.000     O          -0.754894           
         O34       1.0000    0.41680   0.30830   0.47199   Biso      1.000     O          -0.672731           
         O35       1.0000    0.39353   0.15531   0.48420   Biso      1.000     O          -0.643196           
         O36       1.0000    0.19849   0.75373   0.13841   Biso      1.000     O          -0.61871  
         O37       1.0000    0.27723   0.67426   0.17232   Biso      1.000     O          -0.729677           
         O38       1.0000    0.30057   0.44254   0.45544   Biso      1.000     O          -0.608557           
         O39       1.0000    0.22779   0.35712   0.47098   Biso      1.000     O          -0.754894           
         O40       1.0000    0.91680   0.80830   0.47199   Biso      1.000     O          -0.672731           
         O41       1.0000    0.89353   0.65531   0.48420   Biso      1.000     O          -0.643196           
         O42       1.0000    0.22277   0.17426   0.32768   Biso      1.000     O          -0.729677           
         O43       1.0000    0.77723   0.82574   0.67232   Biso      1.000     O          -0.729677           
         O44       1.0000    0.80057   0.05746   0.95544   Biso      1.000     O          -0.608557           
         O45       1.0000    0.72779   0.14288   0.97098   Biso      1.000     O          -0.754894           
         O46       1.0000    0.41680   0.69170   0.97199   Biso      1.000     O          -0.672731           
         O47       1.0000    0.19849   0.24627   0.63841   Biso      1.000     O          -0.61871  
         O48       1.0000    0.30151   0.25373   0.36159   Biso      1.000     O          -0.61871 