
##########################################################################
#               Crystallographic Information Format file
#               Produced by PyCifRW module
#
#  This is a CIF file.  CIF has been adopted by the International
#  Union of Crystallography as the standard for data archiving and
#  transmission.
#
#  For information on this file format, follow the CIF links at
#  http://www.iucr.org
##########################################################################

data_image0

_cell_length_a                          17.6167
_cell_length_b                          9.1946
_cell_length_c                          10.7005
_cell_angle_alpha                       90
_cell_angle_beta                        90
_cell_angle_gamma                       90
_symmetry_space_group_name_H-M          'P 1'
_symmetry_int_tables_number             1
loop_
  _symmetry_equiv_pos_as_xyz
         'x, y, z' 
loop_
  _atom_site_label
  _atom_site_occupancy
  _atom_site_fract_x
  _atom_site_fract_y
  _atom_site_fract_z
  _atom_site_thermal_displace_type
  _atom_site_B_iso_or_equiv
  _atom_site_type_symbol
  _atom_site_charge
         C1        1.0000    0.82930   0.95210   0.02280   Biso      1.000     C          -0.0028079999999999997        
         C2        1.0000    0.62370   0.86690   0.08600   Biso      1.000     C          0.543338  
         C3        1.0000    0.69160   0.93670   0.02600   Biso      1.000     C          -0.006296           
         C4        1.0000    0.82530   0.05970   0.93330   Biso      1.000     C          -0.022513           
         C5        1.0000    0.17070   0.04790   0.52280   Biso      1.000     C          -0.002809           
         C6        1.0000    0.17470   0.94030   0.43330   Biso      1.000     C          -0.022509           
         C7        1.0000    0.24470   0.89270   0.39200   Biso      1.000     C          -0.11674000000000001          
         C8        1.0000    0.11500   0.39670   0.87990   Biso      1.000     C          0.542666  
         C9        1.0000    0.10460   0.87090   0.37670   Biso      1.000     C          0.60546   
         C10       1.0000    0.32530   0.44030   0.93330   Biso      1.000     C          -0.021238           
         C11       1.0000    0.09650   0.08750   0.58610   Biso      1.000     C          0.624819  
         C12       1.0000    0.19160   0.56330   0.02600   Biso      1.000     C          -0.011608           
         C13       1.0000    0.31250   0.95140   0.43730   Biso      1.000     C          0.001592  
         C14       1.0000    0.38500   0.89670   0.37990   Biso      1.000     C          0.540729  
         C15       1.0000    0.12370   0.63310   0.08600   Biso      1.000     C          0.543189  
         C16       1.0000    0.32930   0.54790   0.02280   Biso      1.000     C          -0.004939           
         C17       1.0000    0.26270   0.61170   0.06540   Biso      1.000     C          -0.121549           
         C18       1.0000    0.25530   0.39270   0.89200   Biso      1.000     C          -0.113757           
         C19       1.0000    0.60460   0.62910   0.37670   Biso      1.000     C          0.605159  
         C20       1.0000    0.23730   0.11170   0.56540   Biso      1.000     C          -0.12455799999999999          
         C21       1.0000    0.18750   0.45140   0.93730   Biso      1.000     C          -0.004285           
         C22       1.0000    0.75530   0.10730   0.89200   Biso      1.000     C          -0.116731           
         C23       1.0000    0.30840   0.06330   0.52600   Biso      1.000     C          -0.006272           
         C24       1.0000    0.67470   0.55970   0.43330   Biso      1.000     C          -0.021240000000000002         
         C25       1.0000    0.89540   0.12910   0.87670   Biso      1.000     C          0.6054649999999999  
         C26       1.0000    0.80840   0.43670   0.52600   Biso      1.000     C          -0.011604999999999999         
         C27       1.0000    0.90350   0.91250   0.08610   Biso      1.000     C          0.624821  
         C28       1.0000    0.39540   0.37090   0.87670   Biso      1.000     C          0.605158  
         C29       1.0000    0.87630   0.36690   0.58600   Biso      1.000     C          0.543197  
         C30       1.0000    0.67070   0.45210   0.52280   Biso      1.000     C          -0.0049369999999999995        
         C31       1.0000    0.61500   0.10330   0.87990   Biso      1.000     C          0.540722  
         C32       1.0000    0.74470   0.60730   0.39200   Biso      1.000     C          -0.11376300000000002          
         C33       1.0000    0.37630   0.13310   0.58600   Biso      1.000     C          0.543335  
         C34       1.0000    0.81250   0.54860   0.43730   Biso      1.000     C          -0.004281           
         C35       1.0000    0.73730   0.38830   0.56540   Biso      1.000     C          -0.121552           
         C36       1.0000    0.76270   0.88830   0.06540   Biso      1.000     C          -0.124553           
         C37       1.0000    0.88500   0.60330   0.37990   Biso      1.000     C          0.54267   
         C38       1.0000    0.68750   0.04860   0.93730   Biso      1.000     C          0.001586  
         C39       1.0000    0.40350   0.58750   0.08610   Biso      1.000     C          0.62444   
         C40       1.0000    0.59650   0.41250   0.58610   Biso      1.000     C          0.624438  
         Cd1       1.0000    0.50104   0.78615   0.23900   Biso      1.000     Cd          1.011188  
         Cd2       1.0000    0.00104   0.71385   0.23900   Biso      1.000     Cd          1.008359  
         Cd3       1.0000    0.49896   0.21385   0.73900   Biso      1.000     Cd          1.011189  
         Cd4       1.0000    0.99896   0.28615   0.73900   Biso      1.000     Cd          1.008357  
         H1        1.0000    0.04970   0.71460   0.57470   Biso      1.000     H          0.402015  
         H2        1.0000    0.24670   0.81930   0.33230   Biso      1.000     H          0.133758  
         H3        1.0000    0.93830   0.00440   0.51330   Biso      1.000     H          0.407169  
         H4        1.0000    0.75330   0.18070   0.83230   Biso      1.000     H          0.13376   
         H5        1.0000    0.76560   0.81140   0.12170   Biso      1.000     H          0.134899  
         H6        1.0000    0.95030   0.28540   0.07470   Biso      1.000     H          0.402022  
         H7        1.0000    0.06170   0.99560   0.01330   Biso      1.000     H          0.40715500000000004           
         H8        1.0000    0.23440   0.18860   0.62170   Biso      1.000     H          0.134901  
         H9        1.0000    0.07260   0.81110   0.85730   Biso      1.000     H          0.408498  
         H10       1.0000    0.42740   0.31110   0.35730   Biso      1.000     H          0.4072    
         H11       1.0000    0.92740   0.18890   0.35730   Biso      1.000     H          0.4085    
         H12       1.0000    0.43830   0.49560   0.51330   Biso      1.000     H          0.40736500000000003           
         H13       1.0000    0.56170   0.50440   0.01330   Biso      1.000     H          0.407382  
         H14       1.0000    0.57260   0.68890   0.85730   Biso      1.000     H          0.4072    
         H15       1.0000    0.54970   0.78540   0.57470   Biso      1.000     H          0.400839  
         H16       1.0000    0.73440   0.31140   0.62170   Biso      1.000     H          0.134233  
         H17       1.0000    0.25330   0.31930   0.83230   Biso      1.000     H          0.133438  
         H18       1.0000    0.26560   0.68860   0.12170   Biso      1.000     H          0.134231  
         H19       1.0000    0.45030   0.21460   0.07470   Biso      1.000     H          0.400839  
         H20       1.0000    0.74670   0.68070   0.33230   Biso      1.000     H          0.133435  
         Mg1       1.0000    0.47099   0.62670   0.70723   Biso      1.000     Mg          1.411961  
         Mg2       1.0000    0.97099   0.87330   0.70723   Biso      1.000     Mg          1.409989  
         Mg3       1.0000    0.02901   0.12670   0.20723   Biso      1.000     Mg          1.409979  
         Mg4       1.0000    0.52901   0.37330   0.20723   Biso      1.000     Mg          1.4119540000000002  
         O1        1.0000    0.93440   0.51530   0.34220   Biso      1.000     O          -0.39310100000000003          
         O2        1.0000    0.55640   0.55110   0.31920   Biso      1.000     O          -0.660623           
         O3        1.0000    0.08900   0.04970   0.05450   Biso      1.000     O          -0.659964           
         O4        1.0000    0.56560   0.01530   0.84220   Biso      1.000     O          -0.390939           
         O5        1.0000    0.62440   0.73390   0.10440   Biso      1.000     O          -0.45578599999999997          
         O6        1.0000    0.57500   0.28380   0.58270   Biso      1.000     O          -0.489317           
         O7        1.0000    0.59710   0.76440   0.38620   Biso      1.000     O          -0.48794499999999996          
         O8        1.0000    0.93550   0.01370   0.14030   Biso      1.000     O          -0.646439           
         O9        1.0000    0.94360   0.05110   0.81920   Biso      1.000     O          -0.659492           
         O10       1.0000    0.50830   0.80390   0.60600   Biso      1.000     O          -0.670563           
         O11       1.0000    0.89160   0.73840   0.36280   Biso      1.000     O          -0.429415           
         O12       1.0000    0.92500   0.78380   0.08270   Biso      1.000     O          -0.492591           
         O13       1.0000    0.93050   0.44760   0.62220   Biso      1.000     O          -0.40608099999999997          
         O14       1.0000    0.90290   0.26440   0.88620   Biso      1.000     O          -0.494691           
         O15       1.0000    0.56450   0.51370   0.64030   Biso      1.000     O          -0.648247           
         O16       1.0000    0.60840   0.23840   0.86280   Biso      1.000     O          -0.42300600000000005          
         O17       1.0000    0.99170   0.30390   0.10600   Biso      1.000     O          -0.636125           
         O18       1.0000    0.87560   0.23390   0.60440   Biso      1.000     O          -0.446151           
         O19       1.0000    0.56950   0.94760   0.12220   Biso      1.000     O          -0.405032           
         O20       1.0000    0.47110   0.28040   0.35590   Biso      1.000     O          -0.680964           
         O21       1.0000    0.52890   0.71960   0.85590   Biso      1.000     O          -0.6810109999999999           
         O22       1.0000    0.97110   0.21960   0.35590   Biso      1.000     O          -0.6725770000000001           
         O23       1.0000    0.58900   0.45030   0.05450   Biso      1.000     O          -0.64295  
         O24       1.0000    0.44360   0.44890   0.81920   Biso      1.000     O          -0.660621           
         O25       1.0000    0.43050   0.05240   0.62220   Biso      1.000     O          -0.405065           
         O26       1.0000    0.42500   0.71620   0.08270   Biso      1.000     O          -0.48932200000000003          
         O27       1.0000    0.43440   0.98470   0.34220   Biso      1.000     O          -0.39096  
         O28       1.0000    0.37560   0.26610   0.60440   Biso      1.000     O          -0.455862           
         O29       1.0000    0.40290   0.23560   0.88620   Biso      1.000     O          -0.48793800000000004          
         O30       1.0000    0.06450   0.98630   0.64030   Biso      1.000     O          -0.6464310000000001           
         O31       1.0000    0.49170   0.19610   0.10600   Biso      1.000     O          -0.6705760000000001           
         O32       1.0000    0.10840   0.26160   0.86280   Biso      1.000     O          -0.429403           
         O33       1.0000    0.43550   0.48630   0.14030   Biso      1.000     O          -0.648247           
         O34       1.0000    0.12440   0.76610   0.10440   Biso      1.000     O          -0.446115           
         O35       1.0000    0.39160   0.76160   0.36280   Biso      1.000     O          -0.42303  
         O36       1.0000    0.00830   0.69610   0.60600   Biso      1.000     O          -0.636112           
         O37       1.0000    0.06560   0.48470   0.84220   Biso      1.000     O          -0.39309299999999997          
         O38       1.0000    0.06950   0.55240   0.12220   Biso      1.000     O          -0.406066           
         O39       1.0000    0.09710   0.73560   0.38620   Biso      1.000     O          -0.49468999999999996          
         O40       1.0000    0.07500   0.21620   0.58270   Biso      1.000     O          -0.492584           
         O41       1.0000    0.05640   0.94890   0.31920   Biso      1.000     O          -0.659486           
         O42       1.0000    0.91100   0.95030   0.55450   Biso      1.000     O          -0.65997  
         O43       1.0000    0.41100   0.54970   0.55450   Biso      1.000     O          -0.642889           
         O44       1.0000    0.02890   0.78040   0.85590   Biso      1.000     O          -0.672584 