
##########################################################################
#               Crystallographic Information Format file
#               Produced by PyCifRW module
#
#  This is a CIF file.  CIF has been adopted by the International
#  Union of Crystallography as the standard for data archiving and
#  transmission.
#
#  For information on this file format, follow the CIF links at
#  http://www.iucr.org
##########################################################################

data_image0

_cell_length_a                          29.778
_cell_length_b                          6.6754
_cell_length_c                          19.4782
_cell_angle_alpha                       90
_cell_angle_beta                        113.623
_cell_angle_gamma                       90
_symmetry_space_group_name_H-M          'P 1'
_symmetry_int_tables_number             1
loop_
  _symmetry_equiv_pos_as_xyz
         'x, y, z' 
loop_
  _atom_site_label
  _atom_site_occupancy
  _atom_site_fract_x
  _atom_site_fract_y
  _atom_site_fract_z
  _atom_site_thermal_displace_type
  _atom_site_B_iso_or_equiv
  _atom_site_type_symbol
  _atom_site_charge
         C1        1.0000    0.65170   0.96890   0.40830   Biso      1.000     C          -0.111425           
         C2        1.0000    0.90053   0.46110   0.14630   Biso      1.000     C          0.64878   
         C3        1.0000    0.21360   0.47680   0.03150   Biso      1.000     C          -0.153417           
         C4        1.0000    0.16410   0.49400   0.98420   Biso      1.000     C          0.060964  
         C5        1.0000    0.03383   0.53430   0.63770   Biso      1.000     C          0.572817  
         C6        1.0000    0.30239   0.48020   0.05710   Biso      1.000     C          0.570525  
         C7        1.0000    0.09700   0.35730   0.51490   Biso      1.000     C          -0.142649           
         C8        1.0000    0.18780   0.55240   0.88150   Biso      1.000     C          -0.101057           
         C9        1.0000    0.06620   0.36210   0.55260   Biso      1.000     C          -0.094305           
         C10       1.0000    0.06240   0.53330   0.58960   Biso      1.000     C          -0.01269  
         C11       1.0000    0.12660   0.47950   0.01690   Biso      1.000     C          0.068714  
         C12       1.0000    0.09030   0.69830   0.58930   Biso      1.000     C          -0.103694           
         C13       1.0000    0.12240   0.30810   0.05400   Biso      1.000     C          -0.159741           
         C14       1.0000    0.24960   0.49560   0.00450   Biso      1.000     C          0.000461  
         C15       1.0000    0.12240   0.69190   0.55400   Biso      1.000     C          -0.159738           
         C16       1.0000    0.09030   0.30170   0.08930   Biso      1.000     C          -0.103692           
         C17       1.0000    0.18780   0.44760   0.38150   Biso      1.000     C          -0.101057           
         C18       1.0000    0.30239   0.51980   0.55710   Biso      1.000     C          0.570525  
         C19       1.0000    0.16410   0.50600   0.48420   Biso      1.000     C          0.060964  
         C20       1.0000    0.06240   0.46670   0.08960   Biso      1.000     C          -0.012691           
         C21       1.0000    0.21360   0.52320   0.53150   Biso      1.000     C          -0.153417           
         C22       1.0000    0.06620   0.63790   0.05260   Biso      1.000     C          -0.094303           
         C23       1.0000    0.24960   0.50440   0.50450   Biso      1.000     C          0.000461  
         C24       1.0000    0.09700   0.64270   0.01490   Biso      1.000     C          -0.142648           
         C25       1.0000    0.03383   0.46570   0.13770   Biso      1.000     C          0.572817  
         C26       1.0000    0.23690   0.46580   0.42960   Biso      1.000     C          -0.096494           
         C27       1.0000    0.59947   0.96110   0.35370   Biso      1.000     C          0.64878   
         C28       1.0000    0.12660   0.52050   0.51690   Biso      1.000     C          0.068715  
         C29       1.0000    0.84830   0.46890   0.09170   Biso      1.000     C          -0.111425           
         C30       1.0000    0.23690   0.53420   0.92960   Biso      1.000     C          -0.096494           
         C31       1.0000    0.15170   0.53110   0.90830   Biso      1.000     C          -0.111423           
         C32       1.0000    0.75040   0.49560   0.49550   Biso      1.000     C          0.000457  
         C33       1.0000    0.90053   0.53890   0.64630   Biso      1.000     C          0.64878   
         C34       1.0000    0.78640   0.47680   0.46850   Biso      1.000     C          -0.153413           
         C35       1.0000    0.83590   0.49400   0.51580   Biso      1.000     C          0.060964  
         C36       1.0000    0.69761   0.48020   0.44290   Biso      1.000     C          0.570525  
         C37       1.0000    0.81220   0.55240   0.61850   Biso      1.000     C          -0.101058           
         C38       1.0000    0.96617   0.53430   0.86230   Biso      1.000     C          0.572817  
         C39       1.0000    0.87340   0.47950   0.48310   Biso      1.000     C          0.068714  
         C40       1.0000    0.90300   0.35730   0.98510   Biso      1.000     C          -0.142649           
         C41       1.0000    0.87760   0.30810   0.44600   Biso      1.000     C          -0.159741           
         C42       1.0000    0.93380   0.36210   0.94740   Biso      1.000     C          -0.094305           
         C43       1.0000    0.93760   0.53330   0.91040   Biso      1.000     C          -0.01269  
         C44       1.0000    0.90970   0.30170   0.41070   Biso      1.000     C          -0.103692           
         C45       1.0000    0.90970   0.69830   0.91070   Biso      1.000     C          -0.103694           
         C46       1.0000    0.93760   0.46670   0.41040   Biso      1.000     C          -0.012691           
         C47       1.0000    0.87760   0.69190   0.94600   Biso      1.000     C          -0.159738           
         C48       1.0000    0.87340   0.52050   0.98310   Biso      1.000     C          0.068715  
         C49       1.0000    0.93380   0.63790   0.44740   Biso      1.000     C          -0.094303           
         C50       1.0000    0.81220   0.44760   0.11850   Biso      1.000     C          -0.101056           
         C51       1.0000    0.69761   0.51980   0.94290   Biso      1.000     C          0.570525  
         C52       1.0000    0.83590   0.50600   0.01580   Biso      1.000     C          0.060964  
         C53       1.0000    0.90300   0.64270   0.48510   Biso      1.000     C          -0.142648           
         C54       1.0000    0.78640   0.52320   0.96850   Biso      1.000     C          -0.153417           
         C55       1.0000    0.96617   0.46570   0.36230   Biso      1.000     C          0.572817  
         C56       1.0000    0.75040   0.50440   0.99550   Biso      1.000     C          0.000461  
         C57       1.0000    0.09947   0.53890   0.85370   Biso      1.000     C          0.64878   
         C58       1.0000    0.76310   0.46580   0.07040   Biso      1.000     C          -0.096494           
         C59       1.0000    0.15170   0.46890   0.40830   Biso      1.000     C          -0.111423           
         C60       1.0000    0.84830   0.53110   0.59170   Biso      1.000     C          -0.111423           
         C61       1.0000    0.76310   0.53420   0.57040   Biso      1.000     C          -0.096493           
         C62       1.0000    0.73690   0.96580   0.42960   Biso      1.000     C          -0.096498           
         C63       1.0000    0.26310   0.96580   0.07040   Biso      1.000     C          -0.096498           
         C64       1.0000    0.40300   0.14270   0.48510   Biso      1.000     C          -0.142649           
         C65       1.0000    0.25040   0.00440   0.99550   Biso      1.000     C          0.00046   
         C66       1.0000    0.43380   0.13790   0.44740   Biso      1.000     C          -0.094305           
         C67       1.0000    0.43760   0.96670   0.41040   Biso      1.000     C          -0.01269  
         C68       1.0000    0.28640   0.02320   0.96850   Biso      1.000     C          -0.153413           
         C69       1.0000    0.40970   0.80170   0.41070   Biso      1.000     C          -0.103694           
         C70       1.0000    0.33590   0.00600   0.01580   Biso      1.000     C          0.060964  
         C71       1.0000    0.37760   0.80810   0.44600   Biso      1.000     C          -0.159738           
         C72       1.0000    0.37340   0.97950   0.48310   Biso      1.000     C          0.068715  
         C73       1.0000    0.19761   0.01980   0.94290   Biso      1.000     C          0.570525  
         C74       1.0000    0.31220   0.05240   0.61850   Biso      1.000     C          -0.101057           
         C75       1.0000    0.19761   0.98020   0.44290   Biso      1.000     C          0.570525  
         C76       1.0000    0.33590   0.99400   0.51580   Biso      1.000     C          0.060964  
         C77       1.0000    0.31220   0.94760   0.11850   Biso      1.000     C          -0.101056           
         C78       1.0000    0.28640   0.97680   0.46850   Biso      1.000     C          -0.153417           
         C79       1.0000    0.37340   0.02050   0.98310   Biso      1.000     C          0.068714  
         C80       1.0000    0.25040   0.99560   0.49550   Biso      1.000     C          0.000461  
         C81       1.0000    0.37760   0.19190   0.94600   Biso      1.000     C          -0.159741           
         C82       1.0000    0.40970   0.19830   0.91070   Biso      1.000     C          -0.103692           
         C83       1.0000    0.26310   0.03420   0.57040   Biso      1.000     C          -0.096494           
         C84       1.0000    0.43760   0.03330   0.91040   Biso      1.000     C          -0.012691           
         C85       1.0000    0.43380   0.86210   0.94740   Biso      1.000     C          -0.094303           
         C86       1.0000    0.34830   0.03110   0.59170   Biso      1.000     C          -0.111423           
         C87       1.0000    0.40300   0.85730   0.98510   Biso      1.000     C          -0.142648           
         C88       1.0000    0.40053   0.03890   0.64630   Biso      1.000     C          0.64878   
         C89       1.0000    0.46617   0.03430   0.86230   Biso      1.000     C          0.572817  
         C90       1.0000    0.46617   0.96570   0.36230   Biso      1.000     C          0.572817  
         C91       1.0000    0.09947   0.46110   0.35370   Biso      1.000     C          0.64878   
         C92       1.0000    0.34830   0.96890   0.09170   Biso      1.000     C          -0.111423           
         C93       1.0000    0.59947   0.03890   0.85370   Biso      1.000     C          0.64878   
         C94       1.0000    0.74960   0.00440   0.50450   Biso      1.000     C          0.00046   
         C95       1.0000    0.53383   0.96570   0.13770   Biso      1.000     C          0.572817  
         C96       1.0000    0.71360   0.02320   0.53150   Biso      1.000     C          -0.153413           
         C97       1.0000    0.59700   0.14270   0.01490   Biso      1.000     C          -0.142649           
         C98       1.0000    0.66410   0.00600   0.48420   Biso      1.000     C          0.060964  
         C99       1.0000    0.56620   0.13790   0.05260   Biso      1.000     C          -0.094305           
         C100      1.0000    0.56240   0.96670   0.08960   Biso      1.000     C          -0.01269  
         C101      1.0000    0.80239   0.01980   0.55710   Biso      1.000     C          0.570525  
         C102      1.0000    0.59030   0.80170   0.08930   Biso      1.000     C          -0.103694           
         C103      1.0000    0.68780   0.94760   0.38150   Biso      1.000     C          -0.101054           
         C104      1.0000    0.62240   0.80810   0.05400   Biso      1.000     C          -0.159738           
         C105      1.0000    0.62660   0.97950   0.01690   Biso      1.000     C          0.068715  
         C106      1.0000    0.62660   0.02050   0.51690   Biso      1.000     C          0.068714  
         C107      1.0000    0.40053   0.96110   0.14630   Biso      1.000     C          0.64878   
         C108      1.0000    0.68780   0.05240   0.88150   Biso      1.000     C          -0.101057           
         C109      1.0000    0.66410   0.99400   0.98420   Biso      1.000     C          0.060964  
         C110      1.0000    0.62240   0.19190   0.55400   Biso      1.000     C          -0.159741           
         C111      1.0000    0.71360   0.97680   0.03150   Biso      1.000     C          -0.153417           
         C112      1.0000    0.59030   0.19830   0.58930   Biso      1.000     C          -0.103692           
         C113      1.0000    0.74960   0.99560   0.00450   Biso      1.000     C          0.000462  
         C114      1.0000    0.56240   0.03330   0.58960   Biso      1.000     C          -0.012691           
         C115      1.0000    0.56620   0.86210   0.55260   Biso      1.000     C          -0.094303           
         C116      1.0000    0.73690   0.03420   0.92960   Biso      1.000     C          -0.096494           
         C117      1.0000    0.59700   0.85730   0.51490   Biso      1.000     C          -0.142648           
         C118      1.0000    0.53383   0.03430   0.63770   Biso      1.000     C          0.572817  
         C119      1.0000    0.65170   0.03110   0.90830   Biso      1.000     C          -0.111423           
         C120      1.0000    0.80239   0.98020   0.05710   Biso      1.000     C          0.570525  
         Cd1       1.0000    0.39662   0.45854   0.14673   Biso      1.000     Cd          1.176989  
         Cd2       1.0000    0.89662   0.04146   0.64673   Biso      1.000     Cd          1.176989  
         Cd3       1.0000    0.10338   0.04146   0.85327   Biso      1.000     Cd          1.176989  
         Cd4       1.0000    0.10338   0.95854   0.35327   Biso      1.000     Cd          1.176989  
         Cd5       1.0000    0.00000   0.53777   0.75000   Biso      1.000     Cd          0.994743  
         Cd6       1.0000    0.50000   0.03777   0.75000   Biso      1.000     Cd          0.994743  
         Cd7       1.0000    0.39662   0.54146   0.64673   Biso      1.000     Cd          1.176989  
         Cd8       1.0000    0.50000   0.96223   0.25000   Biso      1.000     Cd          0.994743  
         Cd9       1.0000    0.00000   0.46223   0.25000   Biso      1.000     Cd          0.994743  
         Cd10      1.0000    0.60338   0.45854   0.35327   Biso      1.000     Cd          1.176989  
         Cd11      1.0000    0.89662   0.95854   0.14673   Biso      1.000     Cd          1.176989  
         Cd12      1.0000    0.60338   0.54146   0.85327   Biso      1.000     Cd          1.176989  
         H1        1.0000    0.54790   0.74930   0.55300   Biso      1.000     H          0.123085  
         H2        1.0000    0.17920   0.57910   0.83100   Biso      1.000     H          0.125348  
         H3        1.0000    0.08740   0.81540   0.61320   Biso      1.000     H          0.118395  
         H4        1.0000    0.14130   0.80370   0.55510   Biso      1.000     H          0.117742  
         H5        1.0000    0.14130   0.19630   0.05510   Biso      1.000     H          0.117742  
         H6        1.0000    0.17920   0.42090   0.33100   Biso      1.000     H          0.125348  
         H7        1.0000    0.08740   0.18460   0.11320   Biso      1.000     H          0.118395  
         H8        1.0000    0.22240   0.54790   0.58220   Biso      1.000     H          0.132537  
         H9        1.0000    0.41260   0.68460   0.38680   Biso      1.000     H          0.118395  
         H10       1.0000    0.04790   0.75070   0.05300   Biso      1.000     H          0.123085  
         H11       1.0000    0.09780   0.75630   0.98780   Biso      1.000     H          0.106429  
         H12       1.0000    0.26110   0.45190   0.41120   Biso      1.000     H          0.127118  
         H13       1.0000    0.67920   0.07910   0.83100   Biso      1.000     H          0.125348  
         H14       1.0000    0.67920   0.92090   0.33100   Biso      1.000     H          0.125348  
         H15       1.0000    0.40220   0.25630   0.51220   Biso      1.000     H          0.106429  
         H16       1.0000    0.09780   0.24370   0.48780   Biso      1.000     H          0.106429  
         H17       1.0000    0.76110   0.95190   0.41120   Biso      1.000     H          0.127119  
         H18       1.0000    0.76110   0.04810   0.91120   Biso      1.000     H          0.127118  
         H19       1.0000    0.59780   0.25630   0.98780   Biso      1.000     H          0.106429  
         H20       1.0000    0.72240   0.04790   0.58220   Biso      1.000     H          0.132537  
         H21       1.0000    0.54790   0.25070   0.05300   Biso      1.000     H          0.123085  
         H22       1.0000    0.58740   0.68460   0.11320   Biso      1.000     H          0.118395  
         H23       1.0000    0.64130   0.69630   0.05510   Biso      1.000     H          0.117742  
         H24       1.0000    0.58740   0.31540   0.61320   Biso      1.000     H          0.118395  
         H25       1.0000    0.64130   0.30370   0.55510   Biso      1.000     H          0.117742  
         H26       1.0000    0.72240   0.95210   0.08220   Biso      1.000     H          0.132538  
         H27       1.0000    0.23890   0.95190   0.08880   Biso      1.000     H          0.127119  
         H28       1.0000    0.45210   0.25070   0.44700   Biso      1.000     H          0.123085  
         H29       1.0000    0.04790   0.24930   0.55300   Biso      1.000     H          0.123085  
         H30       1.0000    0.27760   0.04790   0.91780   Biso      1.000     H          0.132537  
         H31       1.0000    0.73890   0.54810   0.58880   Biso      1.000     H          0.127118  
         H32       1.0000    0.40220   0.74370   0.01220   Biso      1.000     H          0.106429  
         H33       1.0000    0.45210   0.74930   0.94700   Biso      1.000     H          0.123085  
         H34       1.0000    0.77760   0.45210   0.41780   Biso      1.000     H          0.132537  
         H35       1.0000    0.82080   0.57910   0.66900   Biso      1.000     H          0.125348  
         H36       1.0000    0.90220   0.24370   0.01220   Biso      1.000     H          0.106429  
         H37       1.0000    0.95210   0.24930   0.94700   Biso      1.000     H          0.123085  
         H38       1.0000    0.85870   0.19630   0.44490   Biso      1.000     H          0.117742  
         H39       1.0000    0.91260   0.81540   0.88680   Biso      1.000     H          0.118395  
         H40       1.0000    0.91260   0.18460   0.38680   Biso      1.000     H          0.118395  
         H41       1.0000    0.85870   0.80370   0.94490   Biso      1.000     H          0.117742  
         H42       1.0000    0.82080   0.42090   0.16900   Biso      1.000     H          0.125348  
         H43       1.0000    0.22240   0.45210   0.08220   Biso      1.000     H          0.132537  
         H44       1.0000    0.95210   0.75070   0.44700   Biso      1.000     H          0.123085  
         H45       1.0000    0.77760   0.54790   0.91780   Biso      1.000     H          0.132537  
         H46       1.0000    0.59780   0.74370   0.48780   Biso      1.000     H          0.106429  
         H47       1.0000    0.90220   0.75630   0.51220   Biso      1.000     H          0.106429  
         H48       1.0000    0.35870   0.69630   0.44490   Biso      1.000     H          0.117742  
         H49       1.0000    0.32080   0.07910   0.66900   Biso      1.000     H          0.125348  
         H50       1.0000    0.41260   0.31540   0.88680   Biso      1.000     H          0.118395  
         H51       1.0000    0.73890   0.45190   0.08880   Biso      1.000     H          0.127118  
         H52       1.0000    0.27760   0.95210   0.41780   Biso      1.000     H          0.132537  
         H53       1.0000    0.23890   0.04810   0.58880   Biso      1.000     H          0.127118  
         H54       1.0000    0.35870   0.30370   0.94490   Biso      1.000     H          0.117742  
         H55       1.0000    0.26110   0.54810   0.91120   Biso      1.000     H          0.127118  
         H56       1.0000    0.32080   0.92090   0.16900   Biso      1.000     H          0.125348  
         O1        1.0000    0.52305   0.13090   0.15900   Biso      1.000     O          -0.595132           
         O2        1.0000    0.42363   0.87700   0.66780   Biso      1.000     O          -0.583225           
         O3        1.0000    0.57929   0.20320   0.82780   Biso      1.000     O          -0.584133           
         O4        1.0000    0.42071   0.20320   0.67220   Biso      1.000     O          -0.584133           
         O5        1.0000    0.18629   0.94950   0.37460   Biso      1.000     O          -0.556625           
         O6        1.0000    0.18629   0.05050   0.87460   Biso      1.000     O          -0.556625           
         O7        1.0000    0.42363   0.12300   0.16780   Biso      1.000     O          -0.583225           
         O8        1.0000    0.57637   0.87700   0.83220   Biso      1.000     O          -0.583225           
         O9        1.0000    0.42071   0.79680   0.17220   Biso      1.000     O          -0.584133           
         O10       1.0000    0.16506   0.99980   0.96850   Biso      1.000     O          -0.559525           
         O11       1.0000    0.47708   0.80150   0.34100   Biso      1.000     O          -0.593169           
         O12       1.0000    0.47708   0.19850   0.84100   Biso      1.000     O          -0.593169           
         O13       1.0000    0.47695   0.13090   0.34100   Biso      1.000     O          -0.595132           
         O14       1.0000    0.16506   0.00020   0.46850   Biso      1.000     O          -0.559525           
         O15       1.0000    0.47695   0.86910   0.84100   Biso      1.000     O          -0.595132           
         O16       1.0000    0.97695   0.63090   0.34100   Biso      1.000     O          -0.595132           
         O17       1.0000    0.81371   0.94950   0.12540   Biso      1.000     O          -0.556625           
         O18       1.0000    0.68629   0.44950   0.37460   Biso      1.000     O          -0.556625           
         O19       1.0000    0.92071   0.70320   0.67220   Biso      1.000     O          -0.584133           
         O20       1.0000    0.66506   0.50020   0.46850   Biso      1.000     O          -0.559525           
         O21       1.0000    0.92363   0.37700   0.66780   Biso      1.000     O          -0.583225           
         O22       1.0000    0.66506   0.49980   0.96850   Biso      1.000     O          -0.559525           
         O23       1.0000    0.68629   0.55050   0.87460   Biso      1.000     O          -0.556625           
         O24       1.0000    0.07637   0.37700   0.83220   Biso      1.000     O          -0.583225           
         O25       1.0000    0.07929   0.70320   0.82780   Biso      1.000     O          -0.584133           
         O26       1.0000    0.97708   0.69850   0.84100   Biso      1.000     O          -0.593169           
         O27       1.0000    0.02305   0.63090   0.15900   Biso      1.000     O          -0.595132           
         O28       1.0000    0.02292   0.30150   0.15900   Biso      1.000     O          -0.593169           
         O29       1.0000    0.97695   0.36910   0.84100   Biso      1.000     O          -0.595132           
         O30       1.0000    0.31371   0.44950   0.12540   Biso      1.000     O          -0.556625           
         O31       1.0000    0.92071   0.29680   0.17220   Biso      1.000     O          -0.584133           
         O32       1.0000    0.33494   0.50020   0.03150   Biso      1.000     O          -0.559525           
         O33       1.0000    0.92363   0.62300   0.16780   Biso      1.000     O          -0.583225           
         O34       1.0000    0.33494   0.49980   0.53150   Biso      1.000     O          -0.559525           
         O35       1.0000    0.31371   0.55050   0.62540   Biso      1.000     O          -0.556625           
         O36       1.0000    0.02292   0.69850   0.65900   Biso      1.000     O          -0.593169           
         O37       1.0000    0.57637   0.12300   0.33220   Biso      1.000     O          -0.583225           
         O38       1.0000    0.02305   0.36910   0.65900   Biso      1.000     O          -0.595132           
         O39       1.0000    0.57929   0.79680   0.32780   Biso      1.000     O          -0.584133           
         O40       1.0000    0.97708   0.30150   0.34100   Biso      1.000     O          -0.593169           
         O41       1.0000    0.52305   0.86910   0.65900   Biso      1.000     O          -0.595132           
         O42       1.0000    0.52292   0.19850   0.65900   Biso      1.000     O          -0.593169           
         O43       1.0000    0.07637   0.62300   0.33220   Biso      1.000     O          -0.583225           
         O44       1.0000    0.81371   0.05050   0.62540   Biso      1.000     O          -0.556625           
         O45       1.0000    0.83494   0.99980   0.53150   Biso      1.000     O          -0.559525           
         O46       1.0000    0.83494   0.00020   0.03150   Biso      1.000     O          -0.559525           
         O47       1.0000    0.52292   0.80150   0.15900   Biso      1.000     O          -0.593169           
         O48       1.0000    0.07929   0.29680   0.32780   Biso      1.000     O          -0.584133 