
##########################################################################
#               Crystallographic Information Format file
#               Produced by PyCifRW module
#
#  This is a CIF file.  CIF has been adopted by the International
#  Union of Crystallography as the standard for data archiving and
#  transmission.
#
#  For information on this file format, follow the CIF links at
#  http://www.iucr.org
##########################################################################

data_image0

_cell_length_a                          10.8281
_cell_length_b                          10.8281
_cell_length_c                          19.043
_cell_angle_alpha                       90
_cell_angle_beta                        90
_cell_angle_gamma                       90
_symmetry_space_group_name_H-M          'P 1'
_symmetry_int_tables_number             1
loop_
  _symmetry_equiv_pos_as_xyz
         'x, y, z' 
loop_
  _atom_site_label
  _atom_site_occupancy
  _atom_site_fract_x
  _atom_site_fract_y
  _atom_site_fract_z
  _atom_site_thermal_displace_type
  _atom_site_B_iso_or_equiv
  _atom_site_type_symbol
  _atom_site_charge
         C1        1.0000    0.05720   0.04850   0.70520   Biso      1.000     C          -0.095125           
         C2        1.0000    0.48940   0.29730   0.41620   Biso      1.000     C          -0.555272           
         C3        1.0000    0.69550   0.21600   0.38304   Biso      1.000     C          0.462142  
         C4        1.0000    0.64240   0.62960   0.45040   Biso      1.000     C          -0.570017           
         C5        1.0000    0.47180   0.66700   0.36480   Biso      1.000     C          -0.553369           
         C6        1.0000    0.58670   0.72110   0.39940   Biso      1.000     C          0.339998  
         C7        1.0000    0.68080   0.75200   0.34342   Biso      1.000     C          0.466218  
         C8        1.0000    0.87720   0.13120   0.26790   Biso      1.000     C          -0.191882           
         C9        1.0000    0.95170   0.07570   0.21850   Biso      1.000     C          -0.093962           
         C10       1.0000    0.94280   0.95150   0.20520   Biso      1.000     C          -0.09555  
         C11       1.0000    0.86070   0.87960   0.24180   Biso      1.000     C          -0.179939           
         C12       1.0000    0.78410   0.93410   0.29158   Biso      1.000     C          0.163199  
         C13       1.0000    0.79120   0.06200   0.30375   Biso      1.000     C          0.163138  
         C14       1.0000    0.34420   0.72460   0.00660   Biso      1.000     C          -0.55617  
         C15       1.0000    0.51060   0.70270   0.91620   Biso      1.000     C          -0.555112           
         C16       1.0000    0.40120   0.77910   0.94205   Biso      1.000     C          0.345133  
         C17       1.0000    0.30450   0.78400   0.88304   Biso      1.000     C          0.461865  
         C18       1.0000    0.35760   0.37040   0.95040   Biso      1.000     C          -0.569698           
         C19       1.0000    0.52820   0.33300   0.86480   Biso      1.000     C          -0.553246           
         C20       1.0000    0.41330   0.27890   0.89940   Biso      1.000     C          0.339826  
         C21       1.0000    0.31920   0.24800   0.84342   Biso      1.000     C          0.466334  
         C22       1.0000    0.12280   0.86880   0.76790   Biso      1.000     C          -0.192353           
         C23       1.0000    0.04830   0.92430   0.71850   Biso      1.000     C          -0.095348           
         C24       1.0000    0.13930   0.12040   0.74180   Biso      1.000     C          -0.179753           
         C25       1.0000    0.21590   0.06590   0.79158   Biso      1.000     C          0.163643  
         C26       1.0000    0.20880   0.93800   0.80375   Biso      1.000     C          0.16399   
         C27       1.0000    0.65580   0.27540   0.50660   Biso      1.000     C          -0.556181           
         C28       1.0000    0.06200   0.20880   0.05375   Biso      1.000     C          0.166816  
         C29       1.0000    0.59880   0.22090   0.44205   Biso      1.000     C          0.345079  
         C30       1.0000    0.87960   0.13930   0.99180   Biso      1.000     C          -0.177201           
         C31       1.0000    0.72460   0.65580   0.75660   Biso      1.000     C          -0.556167           
         C32       1.0000    0.70270   0.48940   0.66620   Biso      1.000     C          -0.555156           
         C33       1.0000    0.77910   0.59880   0.69205   Biso      1.000     C          0.345012  
         C34       1.0000    0.78400   0.69550   0.63304   Biso      1.000     C          0.46237   
         C35       1.0000    0.37040   0.64240   0.70040   Biso      1.000     C          -0.57001  
         C36       1.0000    0.33300   0.47180   0.61480   Biso      1.000     C          -0.553253           
         C37       1.0000    0.27890   0.58670   0.64940   Biso      1.000     C          0.339927  
         C38       1.0000    0.24800   0.68080   0.59342   Biso      1.000     C          0.466304  
         C39       1.0000    0.86880   0.87720   0.51790   Biso      1.000     C          -0.192429           
         C40       1.0000    0.92430   0.95170   0.46850   Biso      1.000     C          -0.095214           
         C41       1.0000    0.93410   0.21590   0.04158   Biso      1.000     C          0.163775  
         C42       1.0000    0.12040   0.86070   0.49180   Biso      1.000     C          -0.179878           
         C43       1.0000    0.06590   0.78410   0.54158   Biso      1.000     C          0.163727  
         C44       1.0000    0.04850   0.94280   0.45520   Biso      1.000     C          -0.095014           
         C45       1.0000    0.27540   0.34420   0.25660   Biso      1.000     C          -0.557774           
         C46       1.0000    0.95150   0.05720   0.95520   Biso      1.000     C          -0.094521           
         C47       1.0000    0.93800   0.79120   0.55375   Biso      1.000     C          0.164047  
         C48       1.0000    0.13120   0.12280   0.01790   Biso      1.000     C          -0.191326           
         C49       1.0000    0.75200   0.31920   0.09342   Biso      1.000     C          0.464993  
         C50       1.0000    0.72110   0.41330   0.14940   Biso      1.000     C          0.336309  
         C51       1.0000    0.07570   0.04830   0.96850   Biso      1.000     C          -0.092354           
         C52       1.0000    0.62960   0.35760   0.20040   Biso      1.000     C          -0.570733           
         C53       1.0000    0.21600   0.30450   0.13304   Biso      1.000     C          0.46014   
         C54       1.0000    0.22090   0.40120   0.19205   Biso      1.000     C          0.340581  
         C55       1.0000    0.29730   0.51060   0.16620   Biso      1.000     C          -0.552409           
         C56       1.0000    0.66700   0.52820   0.11480   Biso      1.000     C          -0.550528           
         H1        1.0000    0.69520   0.42950   0.70320   Biso      1.000     H          0.172052  
         H2        1.0000    0.71340   0.59330   0.79180   Biso      1.000     H          0.169499  
         H3        1.0000    0.64620   0.69210   0.74530   Biso      1.000     H          0.160723  
         H4        1.0000    0.77930   0.71840   0.77410   Biso      1.000     H          0.166744  
         H5        1.0000    0.74280   0.45230   0.62650   Biso      1.000     H          0.162001  
         H6        1.0000    0.62210   0.51750   0.65270   Biso      1.000     H          0.160005  
         H7        1.0000    0.44630   0.66010   0.67630   Biso      1.000     H          0.153746  
         H8        1.0000    0.33710   0.71750   0.71940   Biso      1.000     H          0.166372  
         H9        1.0000    0.35350   0.41220   0.65030   Biso      1.000     H          0.175453  
         H10       1.0000    0.71750   0.66290   0.46940   Biso      1.000     H          0.166411  
         H11       1.0000    0.66010   0.55370   0.42630   Biso      1.000     H          0.153582  
         H12       1.0000    0.38590   0.58510   0.73780   Biso      1.000     H          0.160421  
         H13       1.0000    0.41220   0.64650   0.40030   Biso      1.000     H          0.175387  
         H14       1.0000    0.49380   0.59390   0.33920   Biso      1.000     H          0.159989  
         H15       1.0000    0.43700   0.72660   0.33320   Biso      1.000     H          0.163949  
         H16       1.0000    0.88490   0.21520   0.27690   Biso      1.000     H          0.10436   
         H17       1.0000    0.00880   0.12300   0.19390   Biso      1.000     H          0.098841  
         H18       1.0000    0.99280   0.91570   0.17120   Biso      1.000     H          0.109277  
         H19       1.0000    0.85620   0.79510   0.23340   Biso      1.000     H          0.125044  
         H20       1.0000    0.40670   0.71340   0.04180   Biso      1.000     H          0.168967  
         H21       1.0000    0.30790   0.64620   0.99530   Biso      1.000     H          0.161241  
         H22       1.0000    0.42950   0.30480   0.45320   Biso      1.000     H          0.172043  
         H23       1.0000    0.28160   0.77930   0.02410   Biso      1.000     H          0.166965  
         H24       1.0000    0.48250   0.62210   0.90270   Biso      1.000     H          0.160007  
         H25       1.0000    0.57050   0.69520   0.95320   Biso      1.000     H          0.172122  
         H26       1.0000    0.28250   0.33710   0.96940   Biso      1.000     H          0.166856  
         H27       1.0000    0.33990   0.44630   0.92630   Biso      1.000     H          0.154064  
         H28       1.0000    0.41490   0.38590   0.98780   Biso      1.000     H          0.160039  
         H29       1.0000    0.58780   0.35350   0.90030   Biso      1.000     H          0.175395  
         H30       1.0000    0.50620   0.40610   0.83920   Biso      1.000     H          0.160394  
         H31       1.0000    0.56300   0.27340   0.83320   Biso      1.000     H          0.163973  
         H32       1.0000    0.11510   0.78480   0.77690   Biso      1.000     H          0.104379  
         H33       1.0000    0.99120   0.87700   0.69390   Biso      1.000     H          0.098326  
         H34       1.0000    0.00720   0.08430   0.67120   Biso      1.000     H          0.109084  
         H35       1.0000    0.14380   0.20490   0.73340   Biso      1.000     H          0.125179  
         H36       1.0000    0.54770   0.74280   0.87650   Biso      1.000     H          0.162066  
         H37       1.0000    0.51750   0.37790   0.40270   Biso      1.000     H          0.159883  
         H38       1.0000    0.58510   0.61410   0.48780   Biso      1.000     H          0.160424  
         H39       1.0000    0.71840   0.22070   0.52410   Biso      1.000     H          0.166712  
         H40       1.0000    0.40610   0.49380   0.58920   Biso      1.000     H          0.160289  
         H41       1.0000    0.27340   0.43700   0.58320   Biso      1.000     H          0.163931  
         H42       1.0000    0.78480   0.88490   0.52690   Biso      1.000     H          0.104282  
         H43       1.0000    0.87700   0.00880   0.44390   Biso      1.000     H          0.098396  
         H44       1.0000    0.08430   0.99280   0.42120   Biso      1.000     H          0.109108  
         H45       1.0000    0.20490   0.85620   0.48340   Biso      1.000     H          0.125131  
         H46       1.0000    0.28660   0.40670   0.29180   Biso      1.000     H          0.169633  
         H47       1.0000    0.45230   0.25720   0.37650   Biso      1.000     H          0.161835  
         H48       1.0000    0.22070   0.28160   0.27410   Biso      1.000     H          0.168189  
         H49       1.0000    0.25720   0.54770   0.12650   Biso      1.000     H          0.163021  
         H50       1.0000    0.37790   0.48250   0.15270   Biso      1.000     H          0.161233  
         H51       1.0000    0.30480   0.57050   0.20320   Biso      1.000     H          0.172327  
         H52       1.0000    0.35380   0.30790   0.24530   Biso      1.000     H          0.161825  
         H53       1.0000    0.55370   0.33990   0.17630   Biso      1.000     H          0.154334  
         H54       1.0000    0.66290   0.28250   0.21940   Biso      1.000     H          0.167687  
         H55       1.0000    0.59330   0.28660   0.54180   Biso      1.000     H          0.169374  
         H56       1.0000    0.79510   0.14380   0.98340   Biso      1.000     H          0.125378  
         H57       1.0000    0.91570   0.00720   0.92120   Biso      1.000     H          0.109394  
         H58       1.0000    0.12300   0.99120   0.94390   Biso      1.000     H          0.098576  
         H59       1.0000    0.69210   0.35380   0.49530   Biso      1.000     H          0.160737  
         H60       1.0000    0.72660   0.56300   0.08320   Biso      1.000     H          0.165456  
         H61       1.0000    0.59390   0.50620   0.08920   Biso      1.000     H          0.16143   
         H62       1.0000    0.64650   0.58780   0.15030   Biso      1.000     H          0.175648  
         H63       1.0000    0.61410   0.41490   0.23780   Biso      1.000     H          0.160435  
         H64       1.0000    0.21520   0.11510   0.02690   Biso      1.000     H          0.104699  
         Mn1       1.0000    0.39729   0.02290   0.89477   Biso      1.000     Mn          0.903749  
         Mn2       1.0000    0.97710   0.39729   0.14477   Biso      1.000     Mn          0.723031  
         Mn3       1.0000    0.60271   0.97710   0.39477   Biso      1.000     Mn          0.903892  
         Mn4       1.0000    0.02290   0.60271   0.64477   Biso      1.000     Mn          0.903982  
         N1        1.0000    0.69760   0.87310   0.33467   Biso      1.000     N          -0.453591           
         N2        1.0000    0.87310   0.30240   0.08467   Biso      1.000     N          -0.422589           
         N3        1.0000    0.10280   0.29230   0.10557   Biso      1.000     N          -0.436107           
         N4        1.0000    0.12690   0.69760   0.58467   Biso      1.000     N          -0.453826           
         N5        1.0000    0.89720   0.70770   0.60557   Biso      1.000     N          -0.460737           
         N6        1.0000    0.30240   0.12690   0.83467   Biso      1.000     N          -0.453824           
         N7        1.0000    0.29230   0.89720   0.85557   Biso      1.000     N          -0.460645           
         N8        1.0000    0.70770   0.10280   0.35557   Biso      1.000     N          -0.46046  
         Na1       1.0000    0.48160   0.18270   0.05610   Biso      1.000     Na          0.889446  
         Na2       1.0000    0.18270   0.51840   0.80610   Biso      1.000     Na          0.889545  
         Na3       1.0000    0.81730   0.48160   0.30610   Biso      1.000     Na          0.889998  
         Na4       1.0000    0.51840   0.81730   0.55610   Biso      1.000     Na          0.889438  
         O1        1.0000    0.33140   0.73340   0.56007   Biso      1.000     O          -0.59542  
         O2        1.0000    0.16985   0.55330   0.68727   Biso      1.000     O          -0.65228  
         O3        1.0000    0.31038   0.24800   0.11488   Biso      1.000     O          -0.599285           
         O4        1.0000    0.09977   0.44310   0.20774   Biso      1.000     O          -0.524437           
         O5        1.0000    0.66860   0.26660   0.06007   Biso      1.000     O          -0.592852           
         O6        1.0000    0.83015   0.44670   0.18727   Biso      1.000     O          -0.600746           
         O7        1.0000    0.75200   0.31038   0.36488   Biso      1.000     O          -0.599731           
         O8        1.0000    0.55690   0.09977   0.45774   Biso      1.000     O          -0.584751           
         O9        1.0000    0.73340   0.66860   0.31007   Biso      1.000     O          -0.596578           
         O10       1.0000    0.55330   0.83015   0.43727   Biso      1.000     O          -0.652409           
         O11       1.0000    0.24800   0.68962   0.86488   Biso      1.000     O          -0.598249           
         O12       1.0000    0.44310   0.90023   0.95774   Biso      1.000     O          -0.584915           
         O13       1.0000    0.26660   0.33140   0.81007   Biso      1.000     O          -0.595089           
         O14       1.0000    0.44670   0.16985   0.93727   Biso      1.000     O          -0.652906           
         O15       1.0000    0.90023   0.55690   0.70774   Biso      1.000     O          -0.584367           
         O16       1.0000    0.68962   0.75200   0.61488   Biso      1.000     O          -0.599232 