
##########################################################################
#               Crystallographic Information Format file
#               Produced by PyCifRW module
#
#  This is a CIF file.  CIF has been adopted by the International
#  Union of Crystallography as the standard for data archiving and
#  transmission.
#
#  For information on this file format, follow the CIF links at
#  http://www.iucr.org
##########################################################################

data_image0

_cell_length_a                          19.739
_cell_length_b                          19.739
_cell_length_c                          7.4768
_cell_angle_alpha                       90
_cell_angle_beta                        90
_cell_angle_gamma                       90
_symmetry_space_group_name_H-M          'P 1'
_symmetry_int_tables_number             1
loop_
  _symmetry_equiv_pos_as_xyz
         'x, y, z' 
loop_
  _atom_site_label
  _atom_site_occupancy
  _atom_site_fract_x
  _atom_site_fract_y
  _atom_site_fract_z
  _atom_site_thermal_displace_type
  _atom_site_B_iso_or_equiv
  _atom_site_type_symbol
  _atom_site_charge
         C1        1.0000    0.78590   0.00000   0.15280   Biso      1.000     C          -0.208381           
         C2        1.0000    0.21410   0.00000   0.84720   Biso      1.000     C          -0.208381           
         C3        1.0000    0.35460   0.93750   0.00000   Biso      1.000     C          0.439626  
         C4        1.0000    0.42970   0.93720   0.00000   Biso      1.000     C          -0.054292           
         C5        1.0000    0.46420   0.87890   0.00000   Biso      1.000     C          -0.071706           
         C6        1.0000    0.85550   0.00000   0.14620   Biso      1.000     C          0.131843  
         C7        1.0000    0.06250   0.35460   0.00000   Biso      1.000     C          0.439625  
         C8        1.0000    0.06280   0.42970   0.00000   Biso      1.000     C          -0.054292           
         C9        1.0000    0.12110   0.46420   0.00000   Biso      1.000     C          -0.071706           
         C10       1.0000    0.00000   0.78590   0.84720   Biso      1.000     C          -0.208385           
         C11       1.0000    0.93750   0.64540   0.00000   Biso      1.000     C          0.439626  
         C12       1.0000    0.93720   0.57030   0.00000   Biso      1.000     C          -0.054292           
         C13       1.0000    0.87890   0.53580   0.00000   Biso      1.000     C          -0.071702           
         C14       1.0000    0.53580   0.12110   0.00000   Biso      1.000     C          -0.071735           
         C15       1.0000    0.00000   0.78590   0.15280   Biso      1.000     C          -0.208385           
         C16       1.0000    0.24910   0.00000   0.00000   Biso      1.000     C          0.25355   
         C17       1.0000    0.46430   0.00000   0.00000   Biso      1.000     C          0.016889  
         C18       1.0000    0.00000   0.21410   0.84720   Biso      1.000     C          -0.208381           
         C19       1.0000    0.75090   0.00000   0.00000   Biso      1.000     C          0.25355   
         C20       1.0000    0.53570   0.00000   0.00000   Biso      1.000     C          0.016885  
         C21       1.0000    0.00000   0.14450   0.85380   Biso      1.000     C          0.131843  
         C22       1.0000    0.00000   0.24910   0.00000   Biso      1.000     C          0.25355   
         C23       1.0000    0.00000   0.46430   0.00000   Biso      1.000     C          0.016885  
         C24       1.0000    0.78590   0.00000   0.84720   Biso      1.000     C          -0.208353           
         C25       1.0000    0.00000   0.75090   0.00000   Biso      1.000     C          0.253579  
         C26       1.0000    0.00000   0.53570   0.00000   Biso      1.000     C          0.016889  
         C27       1.0000    0.14450   0.00000   0.85380   Biso      1.000     C          0.131843  
         C28       1.0000    0.00000   0.85550   0.85380   Biso      1.000     C          0.131843  
         C29       1.0000    0.57030   0.06280   0.00000   Biso      1.000     C          -0.054262           
         C30       1.0000    0.85550   0.00000   0.85380   Biso      1.000     C          0.131839  
         C31       1.0000    0.14450   0.00000   0.14620   Biso      1.000     C          0.131839  
         C32       1.0000    0.35460   0.06250   0.00000   Biso      1.000     C          0.439625  
         C33       1.0000    0.42970   0.06280   0.00000   Biso      1.000     C          -0.054292           
         C34       1.0000    0.46420   0.12110   0.00000   Biso      1.000     C          -0.071703           
         C35       1.0000    0.00000   0.21410   0.15280   Biso      1.000     C          -0.208353           
         C36       1.0000    0.64540   0.06250   0.00000   Biso      1.000     C          0.439623  
         C37       1.0000    0.64540   0.93750   0.00000   Biso      1.000     C          0.439625  
         C38       1.0000    0.57030   0.93720   0.00000   Biso      1.000     C          -0.054292           
         C39       1.0000    0.53580   0.87890   0.00000   Biso      1.000     C          -0.071706           
         C40       1.0000    0.00000   0.85550   0.14620   Biso      1.000     C          0.131843  
         C41       1.0000    0.93750   0.35460   0.00000   Biso      1.000     C          0.439623  
         C42       1.0000    0.00000   0.14450   0.14620   Biso      1.000     C          0.131839  
         C43       1.0000    0.87890   0.46420   0.00000   Biso      1.000     C          -0.071735           
         C44       1.0000    0.21410   0.00000   0.15280   Biso      1.000     C          -0.208353           
         C45       1.0000    0.06250   0.64540   0.00000   Biso      1.000     C          0.439626  
         C46       1.0000    0.06280   0.57030   0.00000   Biso      1.000     C          -0.054292           
         C47       1.0000    0.12110   0.53580   0.00000   Biso      1.000     C          -0.071706           
         C48       1.0000    0.93720   0.42970   0.00000   Biso      1.000     C          -0.054262           
         F1        1.0000    0.05982   0.05982   0.50000   Biso      1.000     F          -0.555733           
         F2        1.0000    0.00000   0.00000   0.72850   Biso      1.000     F          -0.494221           
         F3        1.0000    0.00000   0.00000   0.27150   Biso      1.000     F          -0.494221           
         F4        1.0000    0.94018   0.94018   0.50000   Biso      1.000     F          -0.555733           
         F5        1.0000    0.94018   0.05982   0.50000   Biso      1.000     F          -0.555733           
         F6        1.0000    0.05982   0.94018   0.50000   Biso      1.000     F          -0.555733           
         H1        1.0000    0.76310   0.00000   0.73540   Biso      1.000     H          0.141524  
         H2        1.0000    0.00000   0.87950   0.25630   Biso      1.000     H          0.092371  
         H3        1.0000    0.87950   0.00000   0.74370   Biso      1.000     H          0.092371  
         H4        1.0000    0.00000   0.87950   0.74370   Biso      1.000     H          0.092371  
         H5        1.0000    0.00000   0.23690   0.73540   Biso      1.000     H          0.141526  
         H6        1.0000    0.00000   0.23690   0.26460   Biso      1.000     H          0.141524  
         H7        1.0000    0.00000   0.12050   0.25630   Biso      1.000     H          0.092371  
         H8        1.0000    0.00000   0.76310   0.73540   Biso      1.000     H          0.141526  
         H9        1.0000    0.23690   0.00000   0.26460   Biso      1.000     H          0.141524  
         H10       1.0000    0.87950   0.00000   0.25630   Biso      1.000     H          0.092371  
         H11       1.0000    0.76310   0.00000   0.26460   Biso      1.000     H          0.141526  
         H12       1.0000    0.12050   0.00000   0.25630   Biso      1.000     H          0.092371  
         H13       1.0000    0.00000   0.12050   0.74370   Biso      1.000     H          0.092371  
         H14       1.0000    0.83710   0.55960   0.00000   Biso      1.000     H          0.132348  
         H15       1.0000    0.00000   0.76310   0.26460   Biso      1.000     H          0.141526  
         H16       1.0000    0.12050   0.00000   0.74370   Biso      1.000     H          0.092371  
         H17       1.0000    0.16290   0.55960   0.00000   Biso      1.000     H          0.132348  
         H18       1.0000    0.55960   0.16290   0.00000   Biso      1.000     H          0.13235   
         H19       1.0000    0.23690   0.00000   0.73540   Biso      1.000     H          0.141526  
         H20       1.0000    0.44040   0.83710   0.00000   Biso      1.000     H          0.132348  
         H21       1.0000    0.44040   0.16290   0.00000   Biso      1.000     H          0.132348  
         H22       1.0000    0.16290   0.44040   0.00000   Biso      1.000     H          0.132348  
         H23       1.0000    0.55960   0.83710   0.00000   Biso      1.000     H          0.132348  
         H24       1.0000    0.83710   0.44040   0.00000   Biso      1.000     H          0.13235   
         N1        1.0000    0.32260   0.00000   0.00000   Biso      1.000     N          -0.228651           
         N2        1.0000    0.89040   0.00000   0.00000   Biso      1.000     N          -0.208672           
         N3        1.0000    0.67740   0.00000   0.00000   Biso      1.000     N          -0.228651           
         N4        1.0000    0.00000   0.10960   0.00000   Biso      1.000     N          -0.208672           
         N5        1.0000    0.00000   0.32260   0.00000   Biso      1.000     N          -0.228651           
         N6        1.0000    0.00000   0.89040   0.00000   Biso      1.000     N          -0.208673           
         N7        1.0000    0.00000   0.67740   0.00000   Biso      1.000     N          -0.228653           
         N8        1.0000    0.10960   0.00000   0.00000   Biso      1.000     N          -0.208672           
         O1        1.0000    0.67830   0.88510   0.00000   Biso      1.000     O          -0.430905           
         O2        1.0000    0.32170   0.11490   0.00000   Biso      1.000     O          -0.430905           
         O3        1.0000    0.32170   0.88510   0.00000   Biso      1.000     O          -0.430905           
         O4        1.0000    0.11490   0.67830   0.00000   Biso      1.000     O          -0.430905           
         O5        1.0000    0.67830   0.11490   0.00000   Biso      1.000     O          -0.430905           
         O6        1.0000    0.11490   0.32170   0.00000   Biso      1.000     O          -0.430905           
         O7        1.0000    0.88510   0.67830   0.00000   Biso      1.000     O          -0.430905           
         O8        1.0000    0.88510   0.32170   0.00000   Biso      1.000     O          -0.430905           
         Si1       1.0000    0.00000   0.00000   0.50000   Biso      1.000     Si          1.775202  
         Zn1       1.0000    0.00000   0.00000   0.00000   Biso      1.000     Zn          0.724192 