
##########################################################################
#               Crystallographic Information Format file
#               Produced by PyCifRW module
#
#  This is a CIF file.  CIF has been adopted by the International
#  Union of Crystallography as the standard for data archiving and
#  transmission.
#
#  For information on this file format, follow the CIF links at
#  http://www.iucr.org
##########################################################################

data_image0

_cell_length_a                          16.8446
_cell_length_b                          15.1638
_cell_length_c                          8.3702
_cell_angle_alpha                       90
_cell_angle_beta                        116.29
_cell_angle_gamma                       90
_symmetry_space_group_name_H-M          'P 1'
_symmetry_int_tables_number             1
loop_
  _symmetry_equiv_pos_as_xyz
         'x, y, z' 
loop_
  _atom_site_label
  _atom_site_occupancy
  _atom_site_fract_x
  _atom_site_fract_y
  _atom_site_fract_z
  _atom_site_thermal_displace_type
  _atom_site_B_iso_or_equiv
  _atom_site_type_symbol
  _atom_site_charge
         C1        1.0000    0.12487   0.94120   0.58960   Biso      1.000     C          0.569562  
         C2        1.0000    0.67360   0.11530   0.98370   Biso      1.000     C          -0.151864           
         C3        1.0000    0.64837   0.19711   0.02040   Biso      1.000     C          0.07732   
         C4        1.0000    0.69800   0.23350   0.18840   Biso      1.000     C          -0.141755           
         C5        1.0000    0.77000   0.18890   0.31500   Biso      1.000     C          -0.100026           
         C6        1.0000    0.79431   0.10730   0.27660   Biso      1.000     C          -0.029366000000000003         
         C7        1.0000    0.87513   0.05880   0.41040   Biso      1.000     C          0.569562  
         C8        1.0000    0.00000   0.30130   0.25000   Biso      1.000     C          -0.15526600000000002          
         C9        1.0000    0.82640   0.61530   0.51630   Biso      1.000     C          -0.151864           
         C10       1.0000    0.50000   0.80130   0.25000   Biso      1.000     C          -0.15526600000000002          
         C11       1.0000    0.75430   0.57090   0.39000   Biso      1.000     C          -0.10418499999999999          
         C12       1.0000    0.93352   0.83528   0.62230   Biso      1.000     C          0.02765   
         C13       1.0000    0.07022   0.25636   0.38110   Biso      1.000     C          0.051576  
         C14       1.0000    0.70569   0.60730   0.22340   Biso      1.000     C          -0.029367           
         C15       1.0000    0.06648   0.16472   0.37770   Biso      1.000     C          0.027651  
         C16       1.0000    0.24570   0.42910   0.61000   Biso      1.000     C          -0.10418499999999999          
         C17       1.0000    0.17360   0.38470   0.48370   Biso      1.000     C          -0.151864           
         C18       1.0000    0.14837   0.30289   0.52040   Biso      1.000     C          0.077321  
         C19       1.0000    0.19800   0.26650   0.68840   Biso      1.000     C          -0.141755           
         C20       1.0000    0.27000   0.31110   0.81500   Biso      1.000     C          -0.100026           
         C21       1.0000    0.74570   0.07090   0.11000   Biso      1.000     C          -0.10418399999999998          
         C22       1.0000    0.56648   0.33528   0.87770   Biso      1.000     C          0.02765   
         C23       1.0000    0.57022   0.24364   0.88110   Biso      1.000     C          0.051576  
         C24       1.0000    0.85163   0.69711   0.47960   Biso      1.000     C          0.077321  
         C25       1.0000    0.73000   0.68890   0.18500   Biso      1.000     C          -0.100024           
         C26       1.0000    0.42978   0.24364   0.61890   Biso      1.000     C          0.051576  
         C27       1.0000    0.43352   0.33528   0.62230   Biso      1.000     C          0.027651  
         C28       1.0000    0.25430   0.07090   0.39000   Biso      1.000     C          -0.10418499999999999          
         C29       1.0000    0.32640   0.11530   0.51630   Biso      1.000     C          -0.151864           
         C30       1.0000    0.35163   0.19711   0.47960   Biso      1.000     C          0.077321  
         C31       1.0000    0.30200   0.23350   0.31160   Biso      1.000     C          -0.141754           
         C32       1.0000    0.23000   0.18890   0.18500   Biso      1.000     C          -0.100026           
         C33       1.0000    0.20569   0.10730   0.22340   Biso      1.000     C          -0.029365           
         C34       1.0000    0.29431   0.39270   0.77660   Biso      1.000     C          -0.029366000000000003         
         C35       1.0000    0.12487   0.05880   0.08960   Biso      1.000     C          0.569562  
         C36       1.0000    0.07022   0.74364   0.88110   Biso      1.000     C          0.051575  
         C37       1.0000    0.06648   0.83528   0.87770   Biso      1.000     C          0.027651  
         C38       1.0000    0.24570   0.57090   0.11000   Biso      1.000     C          -0.10418499999999999          
         C39       1.0000    0.17360   0.61530   0.98370   Biso      1.000     C          -0.151864           
         C40       1.0000    0.14837   0.69711   0.02040   Biso      1.000     C          0.077321  
         C41       1.0000    0.19800   0.73350   0.18840   Biso      1.000     C          -0.141755           
         C42       1.0000    0.27000   0.68890   0.31500   Biso      1.000     C          -0.100026           
         C43       1.0000    0.29431   0.60730   0.27660   Biso      1.000     C          -0.029366000000000003         
         C44       1.0000    0.37513   0.55880   0.41040   Biso      1.000     C          0.569563  
         C45       1.0000    0.80200   0.73350   0.31160   Biso      1.000     C          -0.141756           
         C46       1.0000    0.37513   0.44120   0.91040   Biso      1.000     C          0.5695640000000001  
         C47       1.0000    0.62487   0.55880   0.08960   Biso      1.000     C          0.569563  
         C48       1.0000    0.82640   0.38470   0.01630   Biso      1.000     C          -0.151864           
         C49       1.0000    0.79431   0.89270   0.77660   Biso      1.000     C          -0.029368000000000002         
         C50       1.0000    0.70569   0.39270   0.72340   Biso      1.000     C          -0.029369           
         C51       1.0000    0.50000   0.19870   0.75000   Biso      1.000     C          -0.15526500000000001          
         C52       1.0000    0.25430   0.92910   0.89000   Biso      1.000     C          -0.10418499999999999          
         C53       1.0000    0.92978   0.25636   0.11890   Biso      1.000     C          0.051576  
         C54       1.0000    0.43352   0.66472   0.12230   Biso      1.000     C          0.027651  
         C55       1.0000    0.32640   0.88470   0.01630   Biso      1.000     C          -0.151864           
         C56       1.0000    0.93352   0.16472   0.12230   Biso      1.000     C          0.027652  
         C57       1.0000    0.42978   0.75636   0.11890   Biso      1.000     C          0.051577  
         C58       1.0000    0.00000   0.69870   0.75000   Biso      1.000     C          -0.15526500000000001          
         C59       1.0000    0.92978   0.74364   0.61890   Biso      1.000     C          0.051577  
         C60       1.0000    0.85163   0.30289   0.97960   Biso      1.000     C          0.077321  
         C61       1.0000    0.62487   0.44120   0.58960   Biso      1.000     C          0.5695640000000001  
         C62       1.0000    0.80200   0.26650   0.81160   Biso      1.000     C          -0.141755           
         C63       1.0000    0.75430   0.42910   0.89000   Biso      1.000     C          -0.104183           
         C64       1.0000    0.77000   0.81110   0.81500   Biso      1.000     C          -0.100024           
         C65       1.0000    0.87513   0.94120   0.91040   Biso      1.000     C          0.569562  
         C66       1.0000    0.35163   0.80289   0.97960   Biso      1.000     C          0.077321  
         C67       1.0000    0.57022   0.75636   0.38110   Biso      1.000     C          0.051576  
         C68       1.0000    0.20569   0.89270   0.72340   Biso      1.000     C          -0.029367           
         C69       1.0000    0.56648   0.66472   0.37770   Biso      1.000     C          0.027651  
         C70       1.0000    0.23000   0.81110   0.68500   Biso      1.000     C          -0.100024           
         C71       1.0000    0.74570   0.92910   0.61000   Biso      1.000     C          -0.104183           
         C72       1.0000    0.30200   0.76650   0.81160   Biso      1.000     C          -0.141755           
         C73       1.0000    0.67360   0.88470   0.48370   Biso      1.000     C          -0.151864           
         C74       1.0000    0.73000   0.31110   0.68500   Biso      1.000     C          -0.100024           
         C75       1.0000    0.69800   0.76650   0.68840   Biso      1.000     C          -0.141755           
         C76       1.0000    0.64837   0.80289   0.52040   Biso      1.000     C          0.07732   
         H1        1.0000    0.69770   0.71390   0.07320   Biso      1.000     H          0.118408  
         H2        1.0000    0.18260   0.78830   0.21570   Biso      1.000     H          0.124575  
         H3        1.0000    0.19770   0.21390   0.07320   Biso      1.000     H          0.118408  
         H4        1.0000    0.31740   0.71170   0.78430   Biso      1.000     H          0.12457599999999999           
         H5        1.0000    0.14130   0.59000   0.87210   Biso      1.000     H          0.114933  
         H6        1.0000    0.23840   0.98380   0.91730   Biso      1.000     H          0.118782  
         H7        1.0000    0.38810   0.36650   0.53240   Biso      1.000     H          0.10343800000000002           
         H8        1.0000    0.19770   0.78610   0.57320   Biso      1.000     H          0.118408  
         H9        1.0000    0.35870   0.91000   0.12790   Biso      1.000     H          0.114933  
         H10       1.0000    0.11190   0.86650   0.96760   Biso      1.000     H          0.10343800000000002           
         H11       1.0000    0.31740   0.28830   0.28430   Biso      1.000     H          0.12457599999999999           
         H12       1.0000    0.23840   0.01620   0.41730   Biso      1.000     H          0.118782  
         H13       1.0000    0.35870   0.09000   0.62790   Biso      1.000     H          0.114933  
         H14       1.0000    0.26160   0.51620   0.08270   Biso      1.000     H          0.118782  
         H15       1.0000    0.38810   0.63350   0.03240   Biso      1.000     H          0.10343800000000002           
         H16       1.0000    0.88810   0.86650   0.53240   Biso      1.000     H          0.10343800000000002           
         H17       1.0000    0.69770   0.28610   0.57320   Biso      1.000     H          0.118408  
         H18       1.0000    0.61190   0.63350   0.46760   Biso      1.000     H          0.10343800000000002           
         H19       1.0000    0.30230   0.28610   0.92680   Biso      1.000     H          0.118408  
         H20       1.0000    0.76160   0.98380   0.58270   Biso      1.000     H          0.118782  
         H21       1.0000    0.18260   0.21170   0.71570   Biso      1.000     H          0.12457599999999999           
         H22       1.0000    0.64130   0.91000   0.37210   Biso      1.000     H          0.11493199999999999           
         H23       1.0000    0.14130   0.41000   0.37210   Biso      1.000     H          0.11493199999999999           
         H24       1.0000    0.26160   0.48380   0.58270   Biso      1.000     H          0.118782  
         H25       1.0000    0.68260   0.71170   0.71570   Biso      1.000     H          0.12457599999999999           
         H26       1.0000    0.80230   0.78610   0.92680   Biso      1.000     H          0.118408  
         H27       1.0000    0.73840   0.51620   0.41730   Biso      1.000     H          0.118782  
         H28       1.0000    0.85870   0.59000   0.62790   Biso      1.000     H          0.114933  
         H29       1.0000    0.50000   0.86270   0.25000   Biso      1.000     H          0.123735  
         H30       1.0000    0.30230   0.71390   0.42680   Biso      1.000     H          0.118408  
         H31       1.0000    0.00000   0.36270   0.25000   Biso      1.000     H          0.123734  
         H32       1.0000    0.50000   0.13730   0.75000   Biso      1.000     H          0.123734  
         H33       1.0000    0.88810   0.13350   0.03240   Biso      1.000     H          0.10343800000000002           
         H34       1.0000    0.80230   0.21390   0.42680   Biso      1.000     H          0.118408  
         H35       1.0000    0.68260   0.28830   0.21570   Biso      1.000     H          0.12457599999999999           
         H36       1.0000    0.73840   0.48380   0.91730   Biso      1.000     H          0.118782  
         H37       1.0000    0.64130   0.09000   0.87210   Biso      1.000     H          0.114933  
         H38       1.0000    0.85870   0.41000   0.12790   Biso      1.000     H          0.114933  
         H39       1.0000    0.76160   0.01620   0.08270   Biso      1.000     H          0.118782  
         H40       1.0000    0.61190   0.36650   0.96760   Biso      1.000     H          0.10343800000000002           
         H41       1.0000    0.81740   0.21170   0.78430   Biso      1.000     H          0.12457599999999999           
         H42       1.0000    0.81740   0.78830   0.28430   Biso      1.000     H          0.12457599999999999           
         H43       1.0000    0.00000   0.63730   0.75000   Biso      1.000     H          0.123734  
         H44       1.0000    0.11190   0.13350   0.46760   Biso      1.000     H          0.10343800000000002           
         N1        1.0000    0.50000   0.38070   0.75000   Biso      1.000     N          -0.20776399999999998          
         N2        1.0000    0.00000   0.11930   0.25000   Biso      1.000     N          -0.207763           
         N3        1.0000    0.00000   0.88070   0.75000   Biso      1.000     N          -0.207762           
         N4        1.0000    0.50000   0.61930   0.25000   Biso      1.000     N          -0.20776399999999998          
         O1        1.0000    0.08836   0.90945   0.43350   Biso      1.000     O          -0.530043           
         O2        1.0000    0.10011   0.00924   0.63740   Biso      1.000     O          -0.586874           
         O3        1.0000    0.58836   0.40945   0.43350   Biso      1.000     O          -0.530044           
         O4        1.0000    0.60011   0.50924   0.63740   Biso      1.000     O          -0.586875           
         O5        1.0000    0.60011   0.49076   0.13740   Biso      1.000     O          -0.586875           
         O6        1.0000    0.58836   0.59055   0.93350   Biso      1.000     O          -0.530044           
         O7        1.0000    0.91164   0.90945   0.06650   Biso      1.000     O          -0.530043           
         O8        1.0000    0.10011   0.99076   0.13740   Biso      1.000     O          -0.586874           
         O9        1.0000    0.08836   0.09055   0.93350   Biso      1.000     O          -0.530042           
         O10       1.0000    0.39989   0.50924   0.86260   Biso      1.000     O          -0.586875           
         O11       1.0000    0.91164   0.09055   0.56650   Biso      1.000     O          -0.530042           
         O12       1.0000    0.89989   0.99076   0.36260   Biso      1.000     O          -0.586874           
         O13       1.0000    0.41164   0.59055   0.56650   Biso      1.000     O          -0.530044           
         O14       1.0000    0.39989   0.49076   0.36260   Biso      1.000     O          -0.586875           
         O15       1.0000    0.41164   0.40945   0.06650   Biso      1.000     O          -0.530044           
         O16       1.0000    0.89989   0.00924   0.86260   Biso      1.000     O          -0.586874           
         Zn1       1.0000    0.00000   0.98363   0.25000   Biso      1.000     Zn          0.915026  
         Zn2       1.0000    0.50000   0.48363   0.25000   Biso      1.000     Zn          0.9150299999999999  
         Zn3       1.0000    0.00000   0.01637   0.75000   Biso      1.000     Zn          0.9150229999999999  
         Zn4       1.0000    0.50000   0.51637   0.75000   Biso      1.000     Zn          0.9150280000000001 