
##########################################################################
#               Crystallographic Information Format file
#               Produced by PyCifRW module
#
#  This is a CIF file.  CIF has been adopted by the International
#  Union of Crystallography as the standard for data archiving and
#  transmission.
#
#  For information on this file format, follow the CIF links at
#  http://www.iucr.org
##########################################################################

data_image0

_cell_length_a                          11.1577
_cell_length_b                          17.4945
_cell_length_c                          13.0419
_cell_angle_alpha                       90
_cell_angle_beta                        102.316
_cell_angle_gamma                       90
_symmetry_space_group_name_H-M          'P 1'
_symmetry_int_tables_number             1
loop_
  _symmetry_equiv_pos_as_xyz
         'x, y, z' 
loop_
  _atom_site_label
  _atom_site_occupancy
  _atom_site_fract_x
  _atom_site_fract_y
  _atom_site_fract_z
  _atom_site_thermal_displace_type
  _atom_site_B_iso_or_equiv
  _atom_site_type_symbol
  _atom_site_charge
         C1        1.0000    0.54920   0.47610   0.84000   Biso      1.000     C          -0.113882           
         C2        1.0000    0.26370   0.05785   0.93930   Biso      1.000     C          -0.216519           
         C3        1.0000    0.75500   0.40037   0.34770   Biso      1.000     C          -0.00526  
         C4        1.0000    0.71590   0.32497   0.34410   Biso      1.000     C          -0.146947           
         C5        1.0000    0.23310   0.09170   0.02590   Biso      1.000     C          0.283178  
         C6        1.0000    0.68380   0.29154   0.43090   Biso      1.000     C          -0.003169           
         C7        1.0000    0.69140   0.33360   0.52280   Biso      1.000     C          -0.243081           
         C8        1.0000    0.19140   0.16640   0.02280   Biso      1.000     C          -0.24308  
         C9        1.0000    0.73310   0.40830   0.52590   Biso      1.000     C          0.283179  
         C10       1.0000    0.76370   0.44215   0.43930   Biso      1.000     C          -0.216517           
         C11       1.0000    0.18380   0.20846   0.93090   Biso      1.000     C          -0.003171           
         C12       1.0000    0.79500   0.43558   0.25480   Biso      1.000     C          0.633038  
         C13       1.0000    0.64580   0.20850   0.42690   Biso      1.000     C          0.635591  
         C14       1.0000    0.68510   0.45295   0.68890   Biso      1.000     C          0.243334  
         C15       1.0000    0.29500   0.06442   0.75480   Biso      1.000     C          0.633038  
         C16       1.0000    0.74560   0.47197   0.79000   Biso      1.000     C          -0.159589           
         C17       1.0000    0.24500   0.59963   0.65230   Biso      1.000     C          -0.00526  
         C18       1.0000    0.21590   0.17503   0.84410   Biso      1.000     C          -0.146945           
         C19       1.0000    0.49200   0.45600   0.73920   Biso      1.000     C          -0.058001           
         C20       1.0000    0.25500   0.09963   0.84770   Biso      1.000     C          -0.005259           
         C21       1.0000    0.55910   0.44470   0.66260   Biso      1.000     C          -0.230121           
         C22       1.0000    0.88200   0.48601   0.81250   Biso      1.000     C          0.677298  
         C23       1.0000    0.73790   0.50890   0.97480   Biso      1.000     C          0.595625  
         C24       1.0000    0.44090   0.55530   0.33740   Biso      1.000     C          -0.230124           
         C25       1.0000    0.20500   0.56442   0.74520   Biso      1.000     C          0.633038  
         C26       1.0000    0.50800   0.54400   0.26080   Biso      1.000     C          -0.058001           
         C27       1.0000    0.35420   0.79150   0.57310   Biso      1.000     C          0.635591  
         C28       1.0000    0.45080   0.52390   0.16000   Biso      1.000     C          -0.113879           
         C29       1.0000    0.32370   0.51630   0.13380   Biso      1.000     C          -0.049764           
         C30       1.0000    0.67630   0.48370   0.86620   Biso      1.000     C          -0.049764           
         C31       1.0000    0.25440   0.52803   0.21000   Biso      1.000     C          -0.159589           
         C32       1.0000    0.11800   0.51399   0.18750   Biso      1.000     C          0.677298  
         C33       1.0000    0.14580   0.29150   0.92690   Biso      1.000     C          0.635591  
         C34       1.0000    0.28410   0.67503   0.65590   Biso      1.000     C          -0.146947           
         C35       1.0000    0.74500   0.90037   0.15230   Biso      1.000     C          -0.00526  
         C36       1.0000    0.78410   0.82497   0.15590   Biso      1.000     C          -0.146947           
         C37       1.0000    0.31620   0.70846   0.56910   Biso      1.000     C          -0.003169           
         C38       1.0000    0.81620   0.79154   0.06910   Biso      1.000     C          -0.003169           
         C39       1.0000    0.80860   0.83360   0.97720   Biso      1.000     C          -0.243081           
         C40       1.0000    0.30860   0.66640   0.47720   Biso      1.000     C          -0.243081           
         C41       1.0000    0.76690   0.90830   0.97410   Biso      1.000     C          0.283178  
         C42       1.0000    0.73630   0.94215   0.06070   Biso      1.000     C          -0.216517           
         C43       1.0000    0.26690   0.59170   0.47410   Biso      1.000     C          0.283178  
         C44       1.0000    0.70500   0.93558   0.24520   Biso      1.000     C          0.633038  
         C45       1.0000    0.85420   0.70850   0.07310   Biso      1.000     C          0.63559   
         C46       1.0000    0.81490   0.95295   0.81110   Biso      1.000     C          0.243335  
         C47       1.0000    0.26210   0.49110   0.02520   Biso      1.000     C          0.595625  
         C48       1.0000    0.75440   0.97197   0.71000   Biso      1.000     C          -0.159589           
         C49       1.0000    0.95080   0.97610   0.66000   Biso      1.000     C          -0.113882           
         C50       1.0000    0.18510   0.04705   0.18890   Biso      1.000     C          0.243334  
         C51       1.0000    0.24560   0.02803   0.29000   Biso      1.000     C          -0.159589           
         C52       1.0000    0.17630   0.01630   0.36620   Biso      1.000     C          -0.049765           
         C53       1.0000    0.04920   0.02390   0.34000   Biso      1.000     C          -0.11388  
         C54       1.0000    0.99200   0.04400   0.23920   Biso      1.000     C          -0.058002           
         C55       1.0000    0.05910   0.05530   0.16260   Biso      1.000     C          -0.230121           
         C56       1.0000    0.82370   0.98370   0.63380   Biso      1.000     C          -0.049764           
         C57       1.0000    0.76210   0.00890   0.52520   Biso      1.000     C          0.595625  
         C58       1.0000    0.38200   0.01399   0.31250   Biso      1.000     C          0.677298  
         C59       1.0000    0.94090   0.94470   0.83740   Biso      1.000     C          -0.230124           
         C60       1.0000    0.23790   0.99110   0.47480   Biso      1.000     C          0.595625  
         C61       1.0000    0.00800   0.95600   0.76080   Biso      1.000     C          -0.057998           
         C62       1.0000    0.23630   0.55785   0.56070   Biso      1.000     C          -0.216517           
         C63       1.0000    0.61800   0.98601   0.68750   Biso      1.000     C          0.677298  
         C64       1.0000    0.31490   0.54705   0.31110   Biso      1.000     C          0.243335  
         Ca1       1.0000    0.55375   0.86821   0.42559   Biso      1.000     Ca          1.536857  
         Ca2       1.0000    0.94625   0.36821   0.07441   Biso      1.000     Ca          1.536857  
         Ca3       1.0000    0.44625   0.13179   0.57441   Biso      1.000     Ca          1.536857  
         Ca4       1.0000    0.05375   0.63179   0.92559   Biso      1.000     Ca          1.536857  
         H1        1.0000    0.09270   0.95000   0.77750   Biso      1.000     H          0.11243   
         H2        1.0000    0.98010   0.93170   0.90540   Biso      1.000     H          0.129471  
         H3        1.0000    0.01990   0.06830   0.09460   Biso      1.000     H          0.12947   
         H4        1.0000    0.71010   0.99270   0.05760   Biso      1.000     H          0.146097  
         H5        1.0000    0.90730   0.05000   0.22250   Biso      1.000     H          0.11243   
         H6        1.0000    0.33120   0.68810   0.41900   Biso      1.000     H          0.132519  
         H7        1.0000    0.00300   0.01540   0.39040   Biso      1.000     H          0.127435  
         H8        1.0000    0.49700   0.51540   0.10960   Biso      1.000     H          0.127435  
         H9        1.0000    0.83120   0.81190   0.91900   Biso      1.000     H          0.132519  
         H10       1.0000    0.78880   0.79660   0.21690   Biso      1.000     H          0.126467  
         H11       1.0000    0.28880   0.70340   0.71690   Biso      1.000     H          0.126467  
         H12       1.0000    0.59270   0.55000   0.27750   Biso      1.000     H          0.11243   
         H13       1.0000    0.48010   0.56830   0.40540   Biso      1.000     H          0.129471  
         H14       1.0000    0.28990   0.00730   0.94240   Biso      1.000     H          0.146097  
         H15       1.0000    0.71120   0.29660   0.28310   Biso      1.000     H          0.126467  
         H16       1.0000    0.16880   0.18810   0.08100   Biso      1.000     H          0.132519  
         H17       1.0000    0.66880   0.31190   0.58100   Biso      1.000     H          0.132519  
         H18       1.0000    0.78990   0.49270   0.44240   Biso      1.000     H          0.146097  
         H19       1.0000    0.21120   0.20340   0.78310   Biso      1.000     H          0.126467  
         H20       1.0000    0.50300   0.48460   0.89040   Biso      1.000     H          0.127435  
         H21       1.0000    0.40730   0.45000   0.72250   Biso      1.000     H          0.11243   
         H22       1.0000    0.51990   0.43170   0.59460   Biso      1.000     H          0.12947   
         H23       1.0000    0.21010   0.50730   0.55760   Biso      1.000     H          0.146097  
         H24       1.0000    0.99700   0.98460   0.60960   Biso      1.000     H          0.127435  
         O1        1.0000    0.24090   0.54783   0.38340   Biso      1.000     O          -0.215028           
         O2        1.0000    0.31860   0.45255   0.97240   Biso      1.000     O          -0.500837           
         O3        1.0000    0.39870   0.81831   0.50080   Biso      1.000     O          -0.698267           
         O4        1.0000    0.33540   0.82918   0.65081   Biso      1.000     O          -0.51568  
         O5        1.0000    0.19670   0.60649   0.82034   Biso      1.000     O          -0.677546           
         O6        1.0000    0.18130   0.49338   0.73860   Biso      1.000     O          -0.537672           
         O7        1.0000    0.14990   0.50916   0.99132   Biso      1.000     O          -0.690813           
         O8        1.0000    0.95050   0.42822   0.82490   Biso      1.000     O          -0.5897   
         O9        1.0000    0.04950   0.57178   0.17510   Biso      1.000     O          -0.5897   
         O10       1.0000    0.45050   0.07178   0.32490   Biso      1.000     O          -0.5897   
         O11       1.0000    0.68130   0.00662   0.23860   Biso      1.000     O          -0.537672           
         O12       1.0000    0.69670   0.89351   0.32034   Biso      1.000     O          -0.677546           
         O13       1.0000    0.83540   0.67082   0.15081   Biso      1.000     O          -0.51568  
         O14       1.0000    0.89870   0.68169   0.00080   Biso      1.000     O          -0.698267           
         O15       1.0000    0.74090   0.95217   0.88340   Biso      1.000     O          -0.215028           
         O16       1.0000    0.81860   0.04745   0.47240   Biso      1.000     O          -0.500837           
         O17       1.0000    0.64990   0.99084   0.49132   Biso      1.000     O          -0.690813           
         O18       1.0000    0.58210   0.05302   0.68406   Biso      1.000     O          -0.657343           
         O19       1.0000    0.54950   0.92822   0.67510   Biso      1.000     O          -0.5897   
         O20       1.0000    0.81870   0.50662   0.26140   Biso      1.000     O          -0.537672           
         O21       1.0000    0.80330   0.39351   0.17966   Biso      1.000     O          -0.677546           
         O22       1.0000    0.66460   0.17082   0.34919   Biso      1.000     O          -0.51568  
         O23       1.0000    0.75910   0.45217   0.61660   Biso      1.000     O          -0.215028           
         O24       1.0000    0.60130   0.18169   0.49920   Biso      1.000     O          -0.698267           
         O25       1.0000    0.85010   0.49084   0.00868   Biso      1.000     O          -0.690813           
         O26       1.0000    0.91790   0.55302   0.81594   Biso      1.000     O          -0.657343           
         O27       1.0000    0.08210   0.44698   0.18406   Biso      1.000     O          -0.657343           
         O28       1.0000    0.31870   0.99338   0.76140   Biso      1.000     O          -0.537672           
         O29       1.0000    0.30330   0.10649   0.67966   Biso      1.000     O          -0.677546           
         O30       1.0000    0.16460   0.32918   0.84919   Biso      1.000     O          -0.51568  
         O31       1.0000    0.10130   0.31831   0.99920   Biso      1.000     O          -0.698267           
         O32       1.0000    0.25910   0.04783   0.11660   Biso      1.000     O          -0.215027           
         O33       1.0000    0.18140   0.95255   0.52760   Biso      1.000     O          -0.500837           
         O34       1.0000    0.35010   0.00916   0.50868   Biso      1.000     O          -0.690813           
         O35       1.0000    0.41790   0.94698   0.31594   Biso      1.000     O          -0.657343           
         O36       1.0000    0.68140   0.54745   0.02760   Biso      1.000     O          -0.500837           
         Zn1       1.0000    0.86802   0.55992   0.14536   Biso      1.000     Zn          0.929877  
         Zn2       1.0000    0.13198   0.44008   0.85464   Biso      1.000     Zn          0.929877  
         Zn3       1.0000    0.63198   0.05992   0.35464   Biso      1.000     Zn          0.929877  
         Zn4       1.0000    0.36802   0.94008   0.64536   Biso      1.000     Zn          0.929877 