
##########################################################################
#               Crystallographic Information Format file
#               Produced by PyCifRW module
#
#  This is a CIF file.  CIF has been adopted by the International
#  Union of Crystallography as the standard for data archiving and
#  transmission.
#
#  For information on this file format, follow the CIF links at
#  http://www.iucr.org
##########################################################################

data_image0

_cell_length_a                          6.6374
_cell_length_b                          9.5714
_cell_length_c                          19.89
_cell_angle_alpha                       85.19
_cell_angle_beta                        82.971
_cell_angle_gamma                       88.016
_symmetry_space_group_name_H-M          'P 1'
_symmetry_int_tables_number             1
loop_
  _symmetry_equiv_pos_as_xyz
         'x, y, z' 
loop_
  _atom_site_label
  _atom_site_occupancy
  _atom_site_fract_x
  _atom_site_fract_y
  _atom_site_fract_z
  _atom_site_thermal_displace_type
  _atom_site_B_iso_or_equiv
  _atom_site_type_symbol
  _atom_site_charge
         C1        1.0000    0.25700   0.43410   0.02687   Biso      1.000     C          0.554462  
         C2        1.0000    0.53300   0.59700   0.25517   Biso      1.000     C          -0.184437           
         C3        1.0000    0.50600   0.96840   0.24713   Biso      1.000     C          -0.07893700000000001          
         C4        1.0000    0.54080   0.49740   0.31012   Biso      1.000     C          -0.066481           
         C5        1.0000    0.33360   0.01620   0.28681   Biso      1.000     C          -0.061209000000000006         
         C6        1.0000    0.18600   0.09460   0.25515   Biso      1.000     C          -0.063933           
         C7        1.0000    0.60490   0.36060   0.29898   Biso      1.000     C          -0.048856000000000004         
         C8        1.0000    0.20530   0.11990   0.18496   Biso      1.000     C          -0.18174300000000002          
         C9        1.0000    0.65480   0.32400   0.23253   Biso      1.000     C          -0.091087           
         C10       1.0000    0.30690   0.97990   0.36226   Biso      1.000     C          0.6311770000000001  
         C11       1.0000    0.64040   0.42160   0.17731   Biso      1.000     C          -0.183988           
         C12       1.0000    0.58320   0.55970   0.18839   Biso      1.000     C          0.271953  
         C13       1.0000    0.03250   0.27320   0.67966   Biso      1.000     C          0.5773560000000001  
         C14       1.0000    0.92870   0.27160   0.87071   Biso      1.000     C          -0.22207600000000002          
         C15       1.0000    0.98050   0.22860   0.80638   Biso      1.000     C          -0.106359           
         C16       1.0000    0.97970   0.32360   0.74877   Biso      1.000     C          -0.043653           
         C17       1.0000    0.92730   0.46380   0.75806   Biso      1.000     C          -0.070815           
         C18       1.0000    0.87730   0.50860   0.82241   Biso      1.000     C          -0.189579           
         C19       1.0000    0.87640   0.41290   0.87963   Biso      1.000     C          0.265424  
         C20       1.0000    0.63620   0.79010   0.96527   Biso      1.000     C          0.5572600000000001  
         C21       1.0000    0.61850   0.66830   0.06828   Biso      1.000     C          0.5579930000000001  
         C22       1.0000    0.74300   0.56590   0.97313   Biso      1.000     C          0.554589  
         C23       1.0000    0.52870   0.99670   0.17699   Biso      1.000     C          -0.21404299999999998          
         C24       1.0000    0.37690   0.07090   0.14538   Biso      1.000     C          0.274525  
         C25       1.0000    0.37370   0.74920   0.64413   Biso      1.000     C          0.6217050000000001  
         C26       1.0000    0.62630   0.25080   0.35587   Biso      1.000     C          0.623121  
         C27       1.0000    0.38150   0.33170   0.93172   Biso      1.000     C          0.5577529999999999  
         C28       1.0000    0.36380   0.20990   0.03473   Biso      1.000     C          0.557286  
         C29       1.0000    0.12360   0.58710   0.12037   Biso      1.000     C          0.265072  
         C30       1.0000    0.12270   0.49140   0.17759   Biso      1.000     C          -0.18965  
         C31       1.0000    0.69310   0.02010   0.63774   Biso      1.000     C          0.632517  
         C32       1.0000    0.07270   0.53620   0.24194   Biso      1.000     C          -0.071337           
         C33       1.0000    0.79470   0.88010   0.81504   Biso      1.000     C          -0.181556           
         C34       1.0000    0.02030   0.67640   0.25123   Biso      1.000     C          -0.043521           
         C35       1.0000    0.01950   0.77140   0.19362   Biso      1.000     C          -0.106169           
         C36       1.0000    0.81400   0.90540   0.74485   Biso      1.000     C          -0.063266           
         C37       1.0000    0.07130   0.72840   0.12929   Biso      1.000     C          -0.222412           
         C38       1.0000    0.96750   0.72680   0.32034   Biso      1.000     C          0.577642  
         C39       1.0000    0.41680   0.44030   0.81161   Biso      1.000     C          0.271545  
         C40       1.0000    0.35960   0.57840   0.82269   Biso      1.000     C          -0.184165           
         C41       1.0000    0.49400   0.03160   0.75287   Biso      1.000     C          -0.07810399999999999          
         C42       1.0000    0.34520   0.67600   0.76747   Biso      1.000     C          -0.091293           
         C43       1.0000    0.47130   0.00330   0.82301   Biso      1.000     C          -0.21408400000000002          
         C44       1.0000    0.39510   0.63940   0.70102   Biso      1.000     C          -0.048166           
         C45       1.0000    0.45920   0.50260   0.68988   Biso      1.000     C          -0.067746           
         C46       1.0000    0.62310   0.92910   0.85462   Biso      1.000     C          0.275273  
         C47       1.0000    0.46700   0.40300   0.74483   Biso      1.000     C          -0.184661           
         C48       1.0000    0.66640   0.98380   0.71319   Biso      1.000     C          -0.061649           
         Co1       1.0000    0.54841   0.15855   0.50925   Biso      1.000     Co          1.018609  
         Co2       1.0000    0.45159   0.84145   0.49075   Biso      1.000     Co          1.012778  
         Co3       1.0000    0.84424   0.98186   0.39089   Biso      1.000     Co          1.0833959999999998  
         Co4       1.0000    0.15576   0.01814   0.60911   Biso      1.000     Co          1.085204  
         H1        1.0000    0.60870   0.91610   0.26820   Biso      1.000     H          0.117219  
         H2        1.0000    0.50240   0.52300   0.35510   Biso      1.000     H          0.120413  
         H3        1.0000    0.64800   0.96540   0.15050   Biso      1.000     H          0.125123  
         H4        1.0000    0.49320   0.69110   0.26300   Biso      1.000     H          0.121624  
         H5        1.0000    0.50680   0.30890   0.73700   Biso      1.000     H          0.12133900000000002           
         H6        1.0000    0.30050   0.76930   0.77520   Biso      1.000     H          0.107904  
         H7        1.0000    0.35200   0.03460   0.84950   Biso      1.000     H          0.12529200000000001           
         H8        1.0000    0.33040   0.60600   0.86770   Biso      1.000     H          0.118621  
         H9        1.0000    0.39130   0.08390   0.73180   Biso      1.000     H          0.11718800000000001           
         H10       1.0000    0.07160   0.79440   0.09080   Biso      1.000     H          0.11838699999999999           
         H11       1.0000    0.98270   0.86700   0.19910   Biso      1.000     H          0.10833599999999999           
         H12       1.0000    0.92910   0.86890   0.71810   Biso      1.000     H          0.115478  
         H13       1.0000    0.07390   0.47060   0.28050   Biso      1.000     H          0.119275  
         H14       1.0000    0.89870   0.82930   0.83620   Biso      1.000     H          0.126656  
         H15       1.0000    0.15660   0.39540   0.17220   Biso      1.000     H          0.11708299999999999           
         H16       1.0000    0.83540   0.37600   0.97720   Biso      1.000     H          0.299658  
         H17       1.0000    0.51380   0.74690   0.15040   Biso      1.000     H          0.28707   
         H18       1.0000    0.54880   0.98320   0.94820   Biso      1.000     H          0.282711  
         H19       1.0000    0.21300   0.04400   0.48940   Biso      1.000     H          0.43100600000000006           
         H20       1.0000    0.07090   0.13110   0.28190   Biso      1.000     H          0.115253  
         H21       1.0000    0.69950   0.23070   0.22480   Biso      1.000     H          0.10794300000000001           
         H22       1.0000    0.49760   0.47700   0.64490   Biso      1.000     H          0.12016199999999999           
         H23       1.0000    0.66960   0.39400   0.13230   Biso      1.000     H          0.118658  
         H24       1.0000    0.78700   0.95600   0.51060   Biso      1.000     H          0.431018  
         H25       1.0000    0.92840   0.20560   0.90920   Biso      1.000     H          0.118521  
         H26       1.0000    0.01730   0.13300   0.80090   Biso      1.000     H          0.108326  
         H27       1.0000    0.16460   0.62400   0.02280   Biso      1.000     H          0.299508  
         H28       1.0000    0.92610   0.52940   0.71950   Biso      1.000     H          0.11935499999999999           
         H29       1.0000    0.48620   0.25310   0.84960   Biso      1.000     H          0.28692399999999996           
         H30       1.0000    0.84340   0.60460   0.82780   Biso      1.000     H          0.117104  
         H31       1.0000    0.10130   0.17070   0.16380   Biso      1.000     H          0.12651500000000002           
         H32       1.0000    0.45120   0.01680   0.05180   Biso      1.000     H          0.282539  
         N1        1.0000    0.59600   0.91040   0.92638   Biso      1.000     N          -0.43399099999999996          
         N2        1.0000    0.56650   0.66730   0.13639   Biso      1.000     N          -0.398798           
         N3        1.0000    0.81910   0.44600   0.94651   Biso      1.000     N          -0.402503           
         N4        1.0000    0.72060   0.68240   0.93241   Biso      1.000     N          -0.519567           
         N5        1.0000    0.58200   0.79320   0.03231   Biso      1.000     N          -0.583156           
         N6        1.0000    0.69590   0.55260   0.04109   Biso      1.000     N          -0.541788           
         N7        1.0000    0.40400   0.08960   0.07362   Biso      1.000     N          -0.43421099999999996          
         N8        1.0000    0.43350   0.33270   0.86361   Biso      1.000     N          -0.39871100000000004          
         N9        1.0000    0.30410   0.44740   0.95891   Biso      1.000     N          -0.54199  
         N10       1.0000    0.18090   0.55400   0.05349   Biso      1.000     N          -0.40263499999999997          
         N11       1.0000    0.27940   0.31760   0.06759   Biso      1.000     N          -0.5197109999999999           
         N12       1.0000    0.41800   0.20680   0.96769   Biso      1.000     N          -0.583573           
         O1        1.0000    0.24130   0.84390   0.65671   Biso      1.000     O          -0.567928           
         O2        1.0000    0.29640   0.03100   0.51766   Biso      1.000     O          -0.953216           
         O3        1.0000    0.99750   0.34790   0.62720   Biso      1.000     O          -0.578472           
         O4        1.0000    0.11460   0.15120   0.67841   Biso      1.000     O          -0.595497           
         O5        1.0000    0.85920   0.98500   0.60301   Biso      1.000     O          -0.600974           
         O6        1.0000    0.54770   0.08470   0.61219   Biso      1.000     O          -0.5663060000000001           
         O7        1.0000    0.88540   0.84880   0.32159   Biso      1.000     O          -0.595639           
         O8        1.0000    0.51530   0.25820   0.41196   Biso      1.000     O          -0.5795060000000001           
         O9        1.0000    0.48470   0.74180   0.58804   Biso      1.000     O          -0.578133           
         O10       1.0000    0.14080   0.01500   0.39699   Biso      1.000     O          -0.602587           
         O11       1.0000    0.45230   0.91530   0.38781   Biso      1.000     O          -0.566451           
         O12       1.0000    0.00250   0.65210   0.37280   Biso      1.000     O          -0.58129  
         O13       1.0000    0.75870   0.15610   0.34329   Biso      1.000     O          -0.563992           
         O14       1.0000    0.70360   0.96900   0.48234   Biso      1.000     O          -0.9532459999999999 