
##########################################################################
#               Crystallographic Information Format file
#               Produced by PyCifRW module
#
#  This is a CIF file.  CIF has been adopted by the International
#  Union of Crystallography as the standard for data archiving and
#  transmission.
#
#  For information on this file format, follow the CIF links at
#  http://www.iucr.org
##########################################################################

data_image0

_cell_length_a                          10.8038
_cell_length_b                          17.5387
_cell_length_c                          17.7283
_cell_angle_alpha                       104.793
_cell_angle_beta                        90
_cell_angle_gamma                       90
_symmetry_space_group_name_H-M          'P 1'
_symmetry_int_tables_number             1
loop_
  _symmetry_equiv_pos_as_xyz
         'x, y, z' 
loop_
  _atom_site_label
  _atom_site_occupancy
  _atom_site_fract_x
  _atom_site_fract_y
  _atom_site_fract_z
  _atom_site_thermal_displace_type
  _atom_site_B_iso_or_equiv
  _atom_site_type_symbol
  _atom_site_charge
         C1        1.0000    0.76440   0.48600   0.31480   Biso      1.000     C          -0.103626           
         C2        1.0000    0.38630   0.55400   0.77880   Biso      1.000     C          -0.105946           
         C3        1.0000    0.33910   0.55760   0.70600   Biso      1.000     C          -0.12618  
         C4        1.0000    0.23560   0.51400   0.68520   Biso      1.000     C          -0.10360899999999999          
         C5        1.0000    0.16160   0.50210   0.61190   Biso      1.000     C          0.680111  
         C6        1.0000    0.63550   0.39050   0.89380   Biso      1.000     C          0.689674  
         C7        1.0000    0.67420   0.33650   0.81940   Biso      1.000     C          -0.115    
         C8        1.0000    0.31760   0.50700   0.81170   Biso      1.000     C          -0.11933800000000001          
         C9        1.0000    0.63560   0.26130   0.78730   Biso      1.000     C          -0.09164299999999999          
         C10       1.0000    0.76690   0.27880   0.69180   Biso      1.000     C          -0.121573           
         C11       1.0000    0.83760   0.26550   0.61660   Biso      1.000     C          0.67194   
         C12       1.0000    0.85440   0.55810   0.61450   Biso      1.000     C          0.6728430000000001  
         C13       1.0000    0.80050   0.61950   0.67980   Biso      1.000     C          -0.092472           
         C14       1.0000    0.80840   0.69900   0.69360   Biso      1.000     C          -0.102676           
         C15       1.0000    0.74330   0.73790   0.76160   Biso      1.000     C          -0.091905           
         C16       1.0000    0.68900   0.22800   0.71340   Biso      1.000     C          -0.107879           
         C17       1.0000    0.69000   0.68890   0.79830   Biso      1.000     C          -0.14223  
         C18       1.0000    0.33470   0.48940   0.88800   Biso      1.000     C          0.646355  
         C19       1.0000    0.19000   0.81110   0.70170   Biso      1.000     C          -0.142265           
         C20       1.0000    0.88630   0.94600   0.72120   Biso      1.000     C          -0.105946           
         C21       1.0000    0.83910   0.94240   0.79400   Biso      1.000     C          -0.12617899999999999          
         C22       1.0000    0.73560   0.98600   0.81480   Biso      1.000     C          -0.10360899999999999          
         C23       1.0000    0.66160   0.99790   0.88810   Biso      1.000     C          0.680111  
         C24       1.0000    0.13550   0.10950   0.60620   Biso      1.000     C          0.689674  
         C25       1.0000    0.17420   0.16350   0.68060   Biso      1.000     C          -0.115    
         C26       1.0000    0.11950   0.78940   0.62770   Biso      1.000     C          0.672248  
         C27       1.0000    0.13560   0.23870   0.71270   Biso      1.000     C          -0.09164299999999999          
         C28       1.0000    0.26690   0.22120   0.80820   Biso      1.000     C          -0.121574           
         C29       1.0000    0.33760   0.23450   0.88340   Biso      1.000     C          0.67194   
         C30       1.0000    0.35440   0.94190   0.88550   Biso      1.000     C          0.6728430000000001  
         C31       1.0000    0.30050   0.88050   0.82020   Biso      1.000     C          -0.092472           
         C32       1.0000    0.30840   0.80100   0.80640   Biso      1.000     C          -0.10268  
         C33       1.0000    0.24330   0.76210   0.73840   Biso      1.000     C          -0.09187100000000001          
         C34       1.0000    0.18900   0.27200   0.78660   Biso      1.000     C          -0.107879           
         C35       1.0000    0.61950   0.71060   0.87230   Biso      1.000     C          0.672244  
         C36       1.0000    0.38050   0.28940   0.12770   Biso      1.000     C          0.672248  
         C37       1.0000    0.31000   0.31110   0.20170   Biso      1.000     C          -0.142265           
         C38       1.0000    0.69950   0.11950   0.17980   Biso      1.000     C          -0.092472           
         C39       1.0000    0.64560   0.05810   0.11450   Biso      1.000     C          0.6728430000000001  
         C40       1.0000    0.66240   0.76550   0.11660   Biso      1.000     C          0.67194   
         C41       1.0000    0.73310   0.77880   0.19180   Biso      1.000     C          -0.121573           
         C42       1.0000    0.81100   0.72800   0.21340   Biso      1.000     C          -0.107878           
         C43       1.0000    0.86440   0.76130   0.28730   Biso      1.000     C          -0.091655           
         C44       1.0000    0.69160   0.19900   0.19360   Biso      1.000     C          -0.102676           
         C45       1.0000    0.82580   0.83650   0.31940   Biso      1.000     C          -0.114988           
         C46       1.0000    0.33840   0.00210   0.11190   Biso      1.000     C          0.680113  
         C47       1.0000    0.26440   0.01400   0.18520   Biso      1.000     C          -0.103626           
         C48       1.0000    0.16090   0.05760   0.20600   Biso      1.000     C          -0.126163           
         C49       1.0000    0.11370   0.05400   0.27880   Biso      1.000     C          -0.105948           
         C50       1.0000    0.18240   0.00700   0.31170   Biso      1.000     C          -0.11933800000000001          
         C51       1.0000    0.16530   0.98940   0.38800   Biso      1.000     C          0.646355  
         C52       1.0000    0.86450   0.89050   0.39380   Biso      1.000     C          0.6896720000000001  
         C53       1.0000    0.75670   0.23790   0.26160   Biso      1.000     C          -0.091905           
         C54       1.0000    0.81000   0.18890   0.29830   Biso      1.000     C          -0.14223  
         C55       1.0000    0.88050   0.21060   0.37230   Biso      1.000     C          0.672244  
         C56       1.0000    0.25670   0.26210   0.23840   Biso      1.000     C          -0.09187100000000001          
         C57       1.0000    0.19160   0.30100   0.30640   Biso      1.000     C          -0.102681           
         C58       1.0000    0.19950   0.38050   0.32020   Biso      1.000     C          -0.092471           
         C59       1.0000    0.14560   0.44190   0.38550   Biso      1.000     C          0.6728430000000001  
         C60       1.0000    0.16240   0.73450   0.38340   Biso      1.000     C          0.67194   
         C61       1.0000    0.23310   0.72120   0.30820   Biso      1.000     C          -0.121573           
         C62       1.0000    0.31100   0.77200   0.28660   Biso      1.000     C          -0.107878           
         C63       1.0000    0.36440   0.73870   0.21270   Biso      1.000     C          -0.091655           
         C64       1.0000    0.32580   0.66350   0.18060   Biso      1.000     C          -0.114988           
         C65       1.0000    0.36450   0.60950   0.10620   Biso      1.000     C          0.6896720000000001  
         C66       1.0000    0.83840   0.49790   0.38810   Biso      1.000     C          0.680113  
         C67       1.0000    0.66090   0.44240   0.29400   Biso      1.000     C          -0.126163           
         C68       1.0000    0.61370   0.44600   0.22120   Biso      1.000     C          -0.105948           
         C69       1.0000    0.68240   0.49300   0.18830   Biso      1.000     C          -0.11933800000000001          
         C70       1.0000    0.66530   0.51060   0.11200   Biso      1.000     C          0.646355  
         C71       1.0000    0.81760   0.99300   0.68830   Biso      1.000     C          -0.11933800000000001          
         C72       1.0000    0.83470   0.01060   0.61200   Biso      1.000     C          0.646355  
         Gd1       1.0000    0.61505   0.58311   0.98698   Biso      1.000     Gd          2.1053330000000003  
         Gd2       1.0000    0.07362   0.61167   0.48728   Biso      1.000     Gd          2.074128  
         Gd3       1.0000    0.57362   0.88833   0.01272   Biso      1.000     Gd          2.074128  
         Gd4       1.0000    0.11505   0.91689   0.51302   Biso      1.000     Gd          2.1053319999999998  
         Gd5       1.0000    0.38495   0.41689   0.01302   Biso      1.000     Gd          2.1053319999999998  
         Gd6       1.0000    0.42638   0.11167   0.98728   Biso      1.000     Gd          2.074127  
         Gd7       1.0000    0.88495   0.08311   0.48698   Biso      1.000     Gd          2.1053330000000003  
         Gd8       1.0000    0.92638   0.38833   0.51272   Biso      1.000     Gd          2.074128  
         H1        1.0000    0.23800   0.70630   0.72040   Biso      1.000     H          0.132321  
         H2        1.0000    0.44800   0.75000   0.97500   Biso      1.000     H          0.334434  
         H3        1.0000    0.45810   0.58150   0.80210   Biso      1.000     H          0.12426500000000001           
         H4        1.0000    0.37630   0.58760   0.67450   Biso      1.000     H          0.134183  
         H5        1.0000    0.73800   0.79370   0.77960   Biso      1.000     H          0.132323  
         H6        1.0000    0.67210   0.17610   0.68270   Biso      1.000     H          0.134714  
         H7        1.0000    0.85240   0.72540   0.66130   Biso      1.000     H          0.13836199999999999           
         H8        1.0000    0.35240   0.77460   0.83870   Biso      1.000     H          0.13836199999999999           
         H9        1.0000    0.05200   0.25000   0.47500   Biso      1.000     H          0.334434  
         H10       1.0000    0.57870   0.23410   0.81190   Biso      1.000     H          0.138537  
         H11       1.0000    0.17210   0.32390   0.81730   Biso      1.000     H          0.134714  
         H12       1.0000    0.04190   0.08150   0.30210   Biso      1.000     H          0.12426500000000001           
         H13       1.0000    0.87630   0.91240   0.82550   Biso      1.000     H          0.134183  
         H14       1.0000    0.07870   0.26590   0.68810   Biso      1.000     H          0.138537  
         H15       1.0000    0.92130   0.73410   0.31190   Biso      1.000     H          0.13853800000000002           
         H16       1.0000    0.64760   0.22540   0.16130   Biso      1.000     H          0.13836099999999998           
         H17       1.0000    0.76200   0.29370   0.27960   Biso      1.000     H          0.132323  
         H18       1.0000    0.55200   0.25000   0.02500   Biso      1.000     H          0.334433  
         H19       1.0000    0.54190   0.41850   0.19790   Biso      1.000     H          0.12426500000000001           
         H20       1.0000    0.62370   0.41240   0.32550   Biso      1.000     H          0.134182  
         H21       1.0000    0.82790   0.67610   0.18270   Biso      1.000     H          0.134714  
         H22       1.0000    0.32790   0.82390   0.31730   Biso      1.000     H          0.134714  
         H23       1.0000    0.95810   0.91850   0.69790   Biso      1.000     H          0.12426500000000001           
         H24       1.0000    0.42130   0.76590   0.18810   Biso      1.000     H          0.13853800000000002           
         H25       1.0000    0.94800   0.75000   0.52500   Biso      1.000     H          0.334434  
         H26       1.0000    0.12370   0.08760   0.17450   Biso      1.000     H          0.134182  
         H27       1.0000    0.26200   0.20630   0.22040   Biso      1.000     H          0.13232   
         H28       1.0000    0.14760   0.27460   0.33870   Biso      1.000     H          0.13836199999999999           
         O1        1.0000    0.91710   0.55210   0.40030   Biso      1.000     O          -0.643716           
         O2        1.0000    0.75630   0.04980   0.58710   Biso      1.000     O          -0.611196           
         O3        1.0000    0.93700   0.98910   0.57380   Biso      1.000     O          -0.761376           
         O4        1.0000    0.89500   0.71670   0.49590   Biso      1.000     O          -0.47545200000000004          
         O5        1.0000    0.58290   0.05210   0.90030   Biso      1.000     O          -0.643716           
         O6        1.0000    0.39200   0.21770   0.09700   Biso      1.000     O          -0.658243           
         O7        1.0000    0.17720   0.51210   0.39140   Biso      1.000     O          -0.648135           
         O8        1.0000    0.07220   0.42040   0.43120   Biso      1.000     O          -0.680936           
         O9        1.0000    0.09080   0.67990   0.39020   Biso      1.000     O          -0.62271  
         O10       1.0000    0.18200   0.79740   0.43340   Biso      1.000     O          -0.6848770000000001           
         O11       1.0000    0.32230   0.54130   0.08830   Biso      1.000     O          -0.6846800000000001           
         O12       1.0000    0.44440   0.63650   0.06590   Biso      1.000     O          -0.64841  
         O13       1.0000    0.68610   0.95260   0.93070   Biso      1.000     O          -0.671259           
         O14       1.0000    0.42630   0.34380   0.10130   Biso      1.000     O          -0.710557           
         O15       1.0000    0.67720   0.98790   0.10860   Biso      1.000     O          -0.648135           
         O16       1.0000    0.74370   0.54980   0.08710   Biso      1.000     O          -0.611196           
         O17       1.0000    0.56300   0.48910   0.07380   Biso      1.000     O          -0.761376           
         O18       1.0000    0.60500   0.21670   0.99590   Biso      1.000     O          -0.475451           
         O19       1.0000    0.92630   0.15620   0.39870   Biso      1.000     O          -0.710557           
         O20       1.0000    0.89200   0.28230   0.40300   Biso      1.000     O          -0.658243           
         O21       1.0000    0.57220   0.07960   0.06880   Biso      1.000     O          -0.680936           
         O22       1.0000    0.59080   0.82010   0.10980   Biso      1.000     O          -0.62271  
         O23       1.0000    0.68200   0.70260   0.06660   Biso      1.000     O          -0.6848770000000001           
         O24       1.0000    0.82230   0.95870   0.41170   Biso      1.000     O          -0.6846800000000001           
         O25       1.0000    0.94440   0.86350   0.43410   Biso      1.000     O          -0.64841  
         O26       1.0000    0.41710   0.94790   0.09970   Biso      1.000     O          -0.643716           
         O27       1.0000    0.31390   0.04740   0.06930   Biso      1.000     O          -0.671259           
         O28       1.0000    0.05560   0.13650   0.56590   Biso      1.000     O          -0.648411           
         O29       1.0000    0.24370   0.95020   0.41290   Biso      1.000     O          -0.611196           
         O30       1.0000    0.81390   0.45260   0.43070   Biso      1.000     O          -0.671259           
         O31       1.0000    0.17770   0.04130   0.58830   Biso      1.000     O          -0.6846800000000001           
         O32       1.0000    0.82280   0.48790   0.60860   Biso      1.000     O          -0.648135           
         O33       1.0000    0.40920   0.17990   0.89020   Biso      1.000     O          -0.62271  
         O34       1.0000    0.06300   0.01090   0.42620   Biso      1.000     O          -0.761376           
         O35       1.0000    0.57370   0.65620   0.89870   Biso      1.000     O          -0.710557           
         O36       1.0000    0.31800   0.29740   0.93340   Biso      1.000     O          -0.6848770000000001           
         O37       1.0000    0.92780   0.57960   0.56880   Biso      1.000     O          -0.680936           
         O38       1.0000    0.90920   0.32010   0.60980   Biso      1.000     O          -0.622711           
         O39       1.0000    0.81800   0.20260   0.56660   Biso      1.000     O          -0.6848770000000001           
         O40       1.0000    0.67770   0.45870   0.91170   Biso      1.000     O          -0.6846800000000001           
         O41       1.0000    0.55560   0.36350   0.93410   Biso      1.000     O          -0.64841  
         O42       1.0000    0.60800   0.78230   0.90300   Biso      1.000     O          -0.658243           
         O43       1.0000    0.18610   0.54740   0.56930   Biso      1.000     O          -0.671259           
         O44       1.0000    0.42780   0.92040   0.93120   Biso      1.000     O          -0.680936           
         O45       1.0000    0.08290   0.44790   0.59970   Biso      1.000     O          -0.643716           
         O46       1.0000    0.32280   0.01210   0.89140   Biso      1.000     O          -0.648135           
         O47       1.0000    0.10800   0.71770   0.59700   Biso      1.000     O          -0.658243           
         O48       1.0000    0.10500   0.28330   0.50410   Biso      1.000     O          -0.47545  
         O49       1.0000    0.39500   0.78330   0.00410   Biso      1.000     O          -0.47545299999999996          
         O50       1.0000    0.43700   0.51090   0.92620   Biso      1.000     O          -0.761376           
         O51       1.0000    0.25630   0.45020   0.91290   Biso      1.000     O          -0.611196           
         O52       1.0000    0.07370   0.84380   0.60130   Biso      1.000     O          -0.710557           
         S1        1.0000    0.30650   0.96644   0.25420   Biso      1.000     S          0.175285  
         S2        1.0000    0.72241   0.86803   0.25988   Biso      1.000     S          0.159693  
         S3        1.0000    0.78466   0.09162   0.25011   Biso      1.000     S          0.137576  
         S4        1.0000    0.22241   0.63197   0.24012   Biso      1.000     S          0.159693  
         S5        1.0000    0.28466   0.40838   0.24989   Biso      1.000     S          0.13758   
         S6        1.0000    0.69350   0.03356   0.74580   Biso      1.000     S          0.175283  
         S7        1.0000    0.27759   0.13197   0.74012   Biso      1.000     S          0.159695  
         S8        1.0000    0.21534   0.90838   0.74989   Biso      1.000     S          0.13758   
         S9        1.0000    0.19350   0.46644   0.75420   Biso      1.000     S          0.175283  
         S10       1.0000    0.77759   0.36803   0.75988   Biso      1.000     S          0.159694  
         S11       1.0000    0.71534   0.59162   0.75011   Biso      1.000     S          0.137576  
         S12       1.0000    0.80650   0.53356   0.24580   Biso      1.000     S          0.175285 