
##########################################################################
#               Crystallographic Information Format file
#               Produced by PyCifRW module
#
#  This is a CIF file.  CIF has been adopted by the International
#  Union of Crystallography as the standard for data archiving and
#  transmission.
#
#  For information on this file format, follow the CIF links at
#  http://www.iucr.org
##########################################################################

data_image0

_cell_length_a                          11.227
_cell_length_b                          17.434
_cell_length_c                          17.98
_cell_angle_alpha                       90
_cell_angle_beta                        90
_cell_angle_gamma                       90
_symmetry_space_group_name_H-M          'P 1'
_symmetry_int_tables_number             1
loop_
  _symmetry_equiv_pos_as_xyz
         'x, y, z' 
loop_
  _atom_site_label
  _atom_site_occupancy
  _atom_site_fract_x
  _atom_site_fract_y
  _atom_site_fract_z
  _atom_site_thermal_displace_type
  _atom_site_B_iso_or_equiv
  _atom_site_type_symbol
  _atom_site_charge
         C1        1.0000    0.49880   0.92460   0.26030   Biso      1.000     C          -0.104328           
         C2        1.0000    0.46630   0.49580   0.66810   Biso      1.000     C          -0.10288599999999999          
         C3        1.0000    0.16480   0.64660   0.59700   Biso      1.000     C          0.618267  
         C4        1.0000    0.93930   0.67600   0.85450   Biso      1.000     C          0.654144  
         C5        1.0000    0.09370   0.63570   0.66480   Biso      1.000     C          -0.092673           
         C6        1.0000    0.05740   0.56640   0.69230   Biso      1.000     C          -0.12643900000000002          
         C7        1.0000    0.99880   0.57540   0.76030   Biso      1.000     C          -0.10432899999999999          
         C8        1.0000    0.98720   0.64950   0.78160   Biso      1.000     C          -0.11219100000000001          
         C9        1.0000    0.11450   0.63480   0.37390   Biso      1.000     C          0.647409  
         C10       1.0000    0.92460   0.66870   0.10520   Biso      1.000     C          0.665825  
         C11       1.0000    0.07070   0.66570   0.30220   Biso      1.000     C          -0.120573           
         C12       1.0000    0.09320   0.73750   0.27350   Biso      1.000     C          -0.10933599999999999          
         C13       1.0000    0.04190   0.74670   0.20190   Biso      1.000     C          -0.11462699999999999          
         C14       1.0000    0.97930   0.68330   0.17950   Biso      1.000     C          -0.120794           
         C15       1.0000    0.13790   0.01310   0.35680   Biso      1.000     C          0.635426  
         C16       1.0000    0.91860   0.97470   0.09470   Biso      1.000     C          0.645984  
         C17       1.0000    0.06930   0.02430   0.28800   Biso      1.000     C          -0.111077           
         C18       1.0000    0.01350   0.08970   0.26350   Biso      1.000     C          -0.12228599999999999          
         C19       1.0000    0.95550   0.07900   0.19440   Biso      1.000     C          -0.10685399999999999          
         C20       1.0000    0.96630   0.00420   0.16810   Biso      1.000     C          -0.10288199999999999          
         C21       1.0000    0.83520   0.35340   0.09700   Biso      1.000     C          0.618266  
         C22       1.0000    0.06070   0.32400   0.35450   Biso      1.000     C          0.654145  
         C23       1.0000    0.45550   0.42100   0.69440   Biso      1.000     C          -0.10685399999999999          
         C24       1.0000    0.90630   0.36430   0.16480   Biso      1.000     C          -0.092672           
         C25       1.0000    0.51350   0.41030   0.76350   Biso      1.000     C          -0.12228699999999999          
         C26       1.0000    0.41860   0.52530   0.59470   Biso      1.000     C          0.645986  
         C27       1.0000    0.45810   0.24670   0.20190   Biso      1.000     C          -0.11463  
         C28       1.0000    0.52070   0.18330   0.17950   Biso      1.000     C          -0.12079000000000001          
         C29       1.0000    0.36210   0.51310   0.35680   Biso      1.000     C          0.6354270000000001  
         C30       1.0000    0.58140   0.47470   0.09470   Biso      1.000     C          0.645984  
         C31       1.0000    0.43070   0.52430   0.28800   Biso      1.000     C          -0.111081           
         C32       1.0000    0.48650   0.58970   0.26350   Biso      1.000     C          -0.12228499999999999          
         C33       1.0000    0.54450   0.57900   0.19440   Biso      1.000     C          -0.10685499999999999          
         C34       1.0000    0.53370   0.50420   0.16810   Biso      1.000     C          -0.10288399999999999          
         C35       1.0000    0.66480   0.85340   0.09700   Biso      1.000     C          0.618267  
         C36       1.0000    0.43930   0.82400   0.35450   Biso      1.000     C          0.654145  
         C37       1.0000    0.59370   0.86430   0.16480   Biso      1.000     C          -0.092675           
         C38       1.0000    0.55740   0.93360   0.19230   Biso      1.000     C          -0.126437           
         C39       1.0000    0.57540   0.16870   0.10520   Biso      1.000     C          0.665824  
         C40       1.0000    0.48720   0.85050   0.28160   Biso      1.000     C          -0.11219200000000001          
         C41       1.0000    0.61450   0.86520   0.87390   Biso      1.000     C          0.647409  
         C42       1.0000    0.42460   0.83130   0.60520   Biso      1.000     C          0.665825  
         C43       1.0000    0.57070   0.83430   0.80220   Biso      1.000     C          -0.120571           
         C44       1.0000    0.59320   0.76250   0.77350   Biso      1.000     C          -0.10933599999999999          
         C45       1.0000    0.54190   0.75330   0.70190   Biso      1.000     C          -0.11462699999999999          
         C46       1.0000    0.47930   0.81670   0.67950   Biso      1.000     C          -0.120794           
         C47       1.0000    0.63790   0.48690   0.85680   Biso      1.000     C          0.635426  
         C48       1.0000    0.56930   0.47570   0.78800   Biso      1.000     C          -0.111079           
         C49       1.0000    0.94260   0.43360   0.19230   Biso      1.000     C          -0.12643900000000002          
         C50       1.0000    0.00120   0.42460   0.26030   Biso      1.000     C          -0.104328           
         C51       1.0000    0.01280   0.35050   0.28160   Biso      1.000     C          -0.11219200000000001          
         C52       1.0000    0.33520   0.14660   0.59700   Biso      1.000     C          0.618268  
         C53       1.0000    0.56070   0.17600   0.85450   Biso      1.000     C          0.654145  
         C54       1.0000    0.40630   0.13570   0.66480   Biso      1.000     C          -0.092677           
         C55       1.0000    0.44260   0.06640   0.69230   Biso      1.000     C          -0.12643800000000002          
         C56       1.0000    0.50120   0.07540   0.76030   Biso      1.000     C          -0.104328           
         C57       1.0000    0.51280   0.14950   0.78160   Biso      1.000     C          -0.112194           
         C58       1.0000    0.38550   0.13480   0.37390   Biso      1.000     C          0.647408  
         C59       1.0000    0.40680   0.23750   0.27350   Biso      1.000     C          -0.10934  
         C60       1.0000    0.03370   0.99580   0.66810   Biso      1.000     C          -0.10288800000000001          
         C61       1.0000    0.04450   0.92100   0.69440   Biso      1.000     C          -0.10685599999999999          
         C62       1.0000    0.42930   0.16570   0.30220   Biso      1.000     C          -0.120566           
         C63       1.0000    0.93070   0.97570   0.78800   Biso      1.000     C          -0.111082           
         C64       1.0000    0.08140   0.02530   0.59470   Biso      1.000     C          0.645985  
         C65       1.0000    0.86210   0.98690   0.85680   Biso      1.000     C          0.6354270000000001  
         C66       1.0000    0.02070   0.31670   0.67950   Biso      1.000     C          -0.120797           
         C67       1.0000    0.95810   0.25330   0.70190   Biso      1.000     C          -0.114622           
         C68       1.0000    0.98650   0.91030   0.76350   Biso      1.000     C          -0.12228599999999999          
         C69       1.0000    0.92930   0.33430   0.80220   Biso      1.000     C          -0.120571           
         C70       1.0000    0.07540   0.33130   0.60520   Biso      1.000     C          0.665825  
         C71       1.0000    0.88550   0.36520   0.87390   Biso      1.000     C          0.647408  
         C72       1.0000    0.90680   0.26250   0.77350   Biso      1.000     C          -0.10933499999999999          
         H1        1.0000    0.08560   0.88200   0.66910   Biso      1.000     H          0.139477  
         H2        1.0000    0.01370   0.13630   0.28980   Biso      1.000     H          0.12404200000000001           
         H3        1.0000    0.95010   0.20860   0.67300   Biso      1.000     H          0.127309  
         H4        1.0000    0.86280   0.22430   0.79820   Biso      1.000     H          0.138402  
         H5        1.0000    0.02980   0.46600   0.28860   Biso      1.000     H          0.12208   
         H6        1.0000    0.92990   0.48100   0.16860   Biso      1.000     H          0.122728  
         H7        1.0000    0.15300   0.82100   0.46100   Biso      1.000     H          0.421537  
         H8        1.0000    0.91440   0.11800   0.16910   Biso      1.000     H          0.139476  
         H9        1.0000    0.98630   0.86370   0.78980   Biso      1.000     H          0.124043  
         H10       1.0000    0.13720   0.77570   0.29820   Biso      1.000     H          0.138402  
         H11       1.0000    0.97020   0.53400   0.78860   Biso      1.000     H          0.12208   
         H12       1.0000    0.65300   0.67900   0.96100   Biso      1.000     H          0.42153599999999997           
         H13       1.0000    0.42990   0.01900   0.66860   Biso      1.000     H          0.122728  
         H14       1.0000    0.52980   0.03400   0.78860   Biso      1.000     H          0.12208   
         H15       1.0000    0.36280   0.27570   0.29820   Biso      1.000     H          0.1384    
         H16       1.0000    0.45010   0.29140   0.17300   Biso      1.000     H          0.127307  
         H17       1.0000    0.48630   0.63630   0.28980   Biso      1.000     H          0.124044  
         H18       1.0000    0.58560   0.61800   0.16910   Biso      1.000     H          0.139478  
         H19       1.0000    0.34700   0.32100   0.46100   Biso      1.000     H          0.421538  
         H20       1.0000    0.57010   0.98100   0.16860   Biso      1.000     H          0.122727  
         H21       1.0000    0.47020   0.96600   0.28860   Biso      1.000     H          0.122079  
         H22       1.0000    0.63720   0.72430   0.79820   Biso      1.000     H          0.138402  
         H23       1.0000    0.51370   0.36370   0.78980   Biso      1.000     H          0.124044  
         H24       1.0000    0.41440   0.38200   0.66910   Biso      1.000     H          0.139478  
         H25       1.0000    0.84700   0.17900   0.96100   Biso      1.000     H          0.42153999999999997           
         H26       1.0000    0.07010   0.51900   0.66860   Biso      1.000     H          0.122728  
         H27       1.0000    0.04990   0.79140   0.17300   Biso      1.000     H          0.12730999999999998           
         H28       1.0000    0.54990   0.70860   0.67300   Biso      1.000     H          0.127309  
         La1       1.0000    0.14260   0.18420   0.48034   Biso      1.000     La          1.9430900000000002  
         La2       1.0000    0.81851   0.53281   0.97990   Biso      1.000     La          1.96393   
         La3       1.0000    0.64260   0.31580   0.98034   Biso      1.000     La          1.943081  
         La4       1.0000    0.18149   0.46719   0.47990   Biso      1.000     La          1.9639330000000002  
         La5       1.0000    0.35740   0.68420   0.48034   Biso      1.000     La          1.943085  
         La6       1.0000    0.68149   0.03281   0.97990   Biso      1.000     La          1.963927  
         La7       1.0000    0.85740   0.81580   0.98034   Biso      1.000     La          1.9430830000000001  
         La8       1.0000    0.31851   0.96719   0.47990   Biso      1.000     La          1.963927  
         O1        1.0000    0.67260   0.81940   0.91420   Biso      1.000     O          -0.620344           
         O2        1.0000    0.36940   0.89260   0.59700   Biso      1.000     O          -0.605144           
         O3        1.0000    0.44700   0.78170   0.55620   Biso      1.000     O          -0.646651           
         O4        1.0000    0.68960   0.55140   0.86550   Biso      1.000     O          -0.606002           
         O5        1.0000    0.64230   0.43600   0.90530   Biso      1.000     O          -0.672415           
         O6        1.0000    0.43760   0.59440   0.58150   Biso      1.000     O          -0.63043  
         O7        1.0000    0.18210   0.59130   0.55370   Biso      1.000     O          -0.676525           
         O8        1.0000    0.78920   0.16950   0.98530   Biso      1.000     O          -0.663565           
         O9        1.0000    0.59340   0.93480   0.88850   Biso      1.000     O          -0.642329           
         O10       1.0000    0.21160   0.71210   0.58590   Biso      1.000     O          -0.565571           
         O11       1.0000    0.92480   0.62540   0.90370   Biso      1.000     O          -0.603921           
         O12       1.0000    0.91770   0.74670   0.86430   Biso      1.000     O          -0.631265           
         O13       1.0000    0.36560   0.47750   0.55450   Biso      1.000     O          -0.606143           
         O14       1.0000    0.41770   0.75330   0.36430   Biso      1.000     O          -0.631267           
         O15       1.0000    0.28920   0.33050   0.48530   Biso      1.000     O          -0.663556           
         O16       1.0000    0.71160   0.78790   0.08590   Biso      1.000     O          -0.565569           
         O17       1.0000    0.68210   0.90870   0.05370   Biso      1.000     O          -0.676523           
         O18       1.0000    0.09340   0.56520   0.38850   Biso      1.000     O          -0.6423300000000001           
         O19       1.0000    0.63440   0.52250   0.05450   Biso      1.000     O          -0.606142           
         O20       1.0000    0.56240   0.40560   0.08150   Biso      1.000     O          -0.630429           
         O21       1.0000    0.35770   0.56400   0.40530   Biso      1.000     O          -0.672416           
         O22       1.0000    0.31040   0.44860   0.36550   Biso      1.000     O          -0.606003           
         O23       1.0000    0.55300   0.21830   0.05620   Biso      1.000     O          -0.646652           
         O24       1.0000    0.63060   0.10740   0.09700   Biso      1.000     O          -0.605144           
         O25       1.0000    0.32740   0.18060   0.41420   Biso      1.000     O          -0.620346           
         O26       1.0000    0.40660   0.06520   0.38850   Biso      1.000     O          -0.642332           
         O27       1.0000    0.58230   0.24670   0.86430   Biso      1.000     O          -0.631266           
         O28       1.0000    0.57520   0.12540   0.90370   Biso      1.000     O          -0.603925           
         O29       1.0000    0.28840   0.21210   0.58590   Biso      1.000     O          -0.56557  
         O30       1.0000    0.42480   0.87460   0.40370   Biso      1.000     O          -0.603924           
         O31       1.0000    0.17260   0.68060   0.41420   Biso      1.000     O          -0.6203420000000001           
         O32       1.0000    0.18960   0.94860   0.36550   Biso      1.000     O          -0.606003           
         O33       1.0000    0.94700   0.71830   0.05620   Biso      1.000     O          -0.646651           
         O34       1.0000    0.13440   0.97750   0.55450   Biso      1.000     O          -0.606141           
         O35       1.0000    0.06240   0.09440   0.58150   Biso      1.000     O          -0.6304310000000001           
         O36       1.0000    0.86940   0.60740   0.09700   Biso      1.000     O          -0.605144           
         O37       1.0000    0.81040   0.05140   0.86550   Biso      1.000     O          -0.606004           
         O38       1.0000    0.05300   0.28170   0.55620   Biso      1.000     O          -0.646651           
         O39       1.0000    0.13060   0.39260   0.59700   Biso      1.000     O          -0.6051449999999999           
         O40       1.0000    0.82740   0.31940   0.91420   Biso      1.000     O          -0.620341           
         O41       1.0000    0.90660   0.43480   0.88850   Biso      1.000     O          -0.6423300000000001           
         O42       1.0000    0.85770   0.93600   0.90530   Biso      1.000     O          -0.672415           
         O43       1.0000    0.07520   0.37460   0.40370   Biso      1.000     O          -0.603923           
         O44       1.0000    0.08230   0.25330   0.36430   Biso      1.000     O          -0.631266           
         O45       1.0000    0.31790   0.09130   0.55370   Biso      1.000     O          -0.676524           
         O46       1.0000    0.14230   0.06400   0.40530   Biso      1.000     O          -0.672417           
         O47       1.0000    0.93760   0.90560   0.08150   Biso      1.000     O          -0.63043  
         O48       1.0000    0.71080   0.66950   0.98530   Biso      1.000     O          -0.663558           
         O49       1.0000    0.21080   0.83050   0.48530   Biso      1.000     O          -0.66356  
         O50       1.0000    0.81790   0.40870   0.05370   Biso      1.000     O          -0.676525           
         O51       1.0000    0.78840   0.28790   0.08590   Biso      1.000     O          -0.56557  
         O52       1.0000    0.86560   0.02250   0.05450   Biso      1.000     O          -0.60614  
         S1        1.0000    0.44720   0.21069   0.71972   Biso      1.000     S          0.189577  
         S2        1.0000    0.51650   0.11208   0.24520   Biso      1.000     S          0.177348  
         S3        1.0000    0.55280   0.78931   0.21972   Biso      1.000     S          0.189576  
         S4        1.0000    0.48350   0.88792   0.74520   Biso      1.000     S          0.17735399999999998           
         S5        1.0000    0.54630   0.55115   0.72778   Biso      1.000     S          0.177795  
         S6        1.0000    0.05280   0.71069   0.71972   Biso      1.000     S          0.189576  
         S7        1.0000    0.98350   0.61208   0.24520   Biso      1.000     S          0.177353  
         S8        1.0000    0.04630   0.94885   0.22778   Biso      1.000     S          0.177791  
         S9        1.0000    0.94720   0.28931   0.21972   Biso      1.000     S          0.189576  
         S10       1.0000    0.01650   0.38792   0.74520   Biso      1.000     S          0.177353  
         S11       1.0000    0.95370   0.05115   0.72778   Biso      1.000     S          0.177793  
         S12       1.0000    0.45370   0.44885   0.22778   Biso      1.000     S          0.177794 