
##########################################################################
#               Crystallographic Information Format file
#               Produced by PyCifRW module
#
#  This is a CIF file.  CIF has been adopted by the International
#  Union of Crystallography as the standard for data archiving and
#  transmission.
#
#  For information on this file format, follow the CIF links at
#  http://www.iucr.org
##########################################################################

data_image0

_cell_length_a                          11.521
_cell_length_b                          14.008
_cell_length_c                          15.701
_cell_angle_alpha                       96.679
_cell_angle_beta                        90
_cell_angle_gamma                       90
_symmetry_space_group_name_H-M          'P 1'
_symmetry_int_tables_number             1
loop_
  _symmetry_equiv_pos_as_xyz
         'x, y, z' 
loop_
  _atom_site_label
  _atom_site_occupancy
  _atom_site_fract_x
  _atom_site_fract_y
  _atom_site_fract_z
  _atom_site_thermal_displace_type
  _atom_site_B_iso_or_equiv
  _atom_site_type_symbol
  _atom_site_charge
         C1        1.0000    0.50100   0.09800   0.96000   Biso      1.000     C          -0.157078           
         C2        1.0000    0.90330   0.76900   0.80310   Biso      1.000     C          -0.103225           
         C3        1.0000    0.83070   0.69100   0.81000   Biso      1.000     C          -0.026875           
         C4        1.0000    0.74000   0.68700   0.88600   Biso      1.000     C          0.571759  
         C5        1.0000    0.74600   0.70400   0.13100   Biso      1.000     C          0.54682   
         C6        1.0000    0.43700   0.69400   0.88400   Biso      1.000     C          0.570217  
         C7        1.0000    0.44600   0.71700   0.12500   Biso      1.000     C          0.635636  
         C8        1.0000    0.48900   0.29500   0.99730   Biso      1.000     C          -0.184996           
         C9        1.0000    0.50200   0.40100   0.98900   Biso      1.000     C          0.127272  
         C10       1.0000    0.58500   0.14800   0.99900   Biso      1.000     C          0.12206600000000001           
         C11       1.0000    0.51800   0.99900   0.98000   Biso      1.000     C          0.103771  
         C12       1.0000    0.69600   0.11100   0.02300   Biso      1.000     C          -0.227528           
         C13       1.0000    0.97060   0.77210   0.73000   Biso      1.000     C          -0.158718           
         C14       1.0000    0.69700   0.31500   0.98800   Biso      1.000     C          -0.166463           
         C15       1.0000    0.24600   0.29600   0.86900   Biso      1.000     C          0.54682   
         C16       1.0000    0.00100   0.90200   0.04000   Biso      1.000     C          -0.157078           
         C17       1.0000    0.01800   0.00100   0.02000   Biso      1.000     C          0.103771  
         C18       1.0000    0.19000   0.00600   0.95700   Biso      1.000     C          0.051216  
         C19       1.0000    0.19600   0.88900   0.97700   Biso      1.000     C          -0.227528           
         C20       1.0000    0.08500   0.85200   0.00100   Biso      1.000     C          0.12206600000000001           
         C21       1.0000    0.00200   0.59900   0.01100   Biso      1.000     C          0.127272  
         C22       1.0000    0.98900   0.70500   0.00270   Biso      1.000     C          -0.184996           
         C23       1.0000    0.10100   0.74500   0.00230   Biso      1.000     C          0.093132  
         C24       1.0000    0.19700   0.68500   0.01200   Biso      1.000     C          -0.166464           
         C25       1.0000    0.20100   0.60100   0.00190   Biso      1.000     C          0.09202300000000001           
         C26       1.0000    0.93700   0.30600   0.11600   Biso      1.000     C          0.570217  
         C27       1.0000    0.96520   0.69730   0.66370   Biso      1.000     C          0.077882  
         C28       1.0000    0.89270   0.61930   0.67060   Biso      1.000     C          -0.156414           
         C29       1.0000    0.82540   0.61610   0.74370   Biso      1.000     C          -0.112238           
         C30       1.0000    0.70100   0.39900   0.99810   Biso      1.000     C          0.09202300000000001           
         C31       1.0000    0.97400   0.64400   0.28100   Biso      1.000     C          -0.149444           
         C32       1.0000    0.89900   0.63700   0.21200   Biso      1.000     C          -0.083326           
         C33       1.0000    0.81900   0.70300   0.19400   Biso      1.000     C          -0.046217           
         C34       1.0000    0.82800   0.78800   0.27100   Biso      1.000     C          -0.088474           
         C35       1.0000    0.88600   0.78500   0.34300   Biso      1.000     C          -0.144746           
         C36       1.0000    0.96400   0.72400   0.35300   Biso      1.000     C          0.114726  
         C37       1.0000    0.21600   0.63200   0.70800   Biso      1.000     C          -0.153685           
         C38       1.0000    0.28300   0.62300   0.78000   Biso      1.000     C          -0.09399500000000001          
         C39       1.0000    0.37400   0.69600   0.80300   Biso      1.000     C          -0.029314           
         C40       1.0000    0.36000   0.77300   0.76500   Biso      1.000     C          -0.080023           
         C41       1.0000    0.29900   0.77900   0.69900   Biso      1.000     C          -0.137471           
         C42       1.0000    0.23200   0.70700   0.66700   Biso      1.000     C          0.116329  
         C43       1.0000    0.21400   0.78400   0.29900   Biso      1.000     C          -0.14366700000000002          
         C44       1.0000    0.27700   0.78400   0.23000   Biso      1.000     C          -0.104878           
         C45       1.0000    0.36200   0.71400   0.21100   Biso      1.000     C          -0.038359           
         C46       1.0000    0.37400   0.63900   0.25200   Biso      1.000     C          -0.10336600000000001          
         C47       1.0000    0.30400   0.63800   0.32800   Biso      1.000     C          -0.157444           
         C48       1.0000    0.22700   0.71200   0.35000   Biso      1.000     C          0.07242   
         C49       1.0000    0.98100   0.71600   0.51300   Biso      1.000     C          -0.173826           
         C50       1.0000    0.02500   0.70500   0.43100   Biso      1.000     C          0.02719   
         C51       1.0000    0.15000   0.72500   0.43400   Biso      1.000     C          0.007445  
         C52       1.0000    0.21400   0.70800   0.50700   Biso      1.000     C          -0.217611           
         C53       1.0000    0.14900   0.69800   0.58900   Biso      1.000     C          0.009792  
         C54       1.0000    0.03200   0.71900   0.58500   Biso      1.000     C          0.043695  
         C55       1.0000    0.47400   0.35600   0.71900   Biso      1.000     C          -0.14943800000000002          
         C56       1.0000    0.39900   0.36300   0.78800   Biso      1.000     C          -0.083328           
         C57       1.0000    0.94600   0.28300   0.87500   Biso      1.000     C          0.635636  
         C58       1.0000    0.32800   0.21200   0.72900   Biso      1.000     C          -0.08848400000000001          
         C59       1.0000    0.69000   0.99400   0.04300   Biso      1.000     C          0.051216  
         C60       1.0000    0.24000   0.31300   0.11400   Biso      1.000     C          0.571759  
         C61       1.0000    0.33070   0.30900   0.19000   Biso      1.000     C          -0.026875           
         C62       1.0000    0.40330   0.23100   0.19690   Biso      1.000     C          -0.103225           
         C63       1.0000    0.47060   0.22790   0.27000   Biso      1.000     C          -0.158718           
         C64       1.0000    0.46520   0.30270   0.33630   Biso      1.000     C          0.077886  
         C65       1.0000    0.31900   0.29700   0.80600   Biso      1.000     C          -0.046216           
         C66       1.0000    0.39270   0.38070   0.32940   Biso      1.000     C          -0.156415           
         C67       1.0000    0.32540   0.38390   0.25630   Biso      1.000     C          -0.112238           
         C68       1.0000    0.53200   0.28100   0.41500   Biso      1.000     C          0.04364   
         C69       1.0000    0.64900   0.30200   0.41100   Biso      1.000     C          0.009798999999999999          
         C70       1.0000    0.71400   0.29200   0.49300   Biso      1.000     C          -0.217612           
         C71       1.0000    0.65000   0.27500   0.56600   Biso      1.000     C          0.007445  
         C72       1.0000    0.52500   0.29500   0.56900   Biso      1.000     C          0.027183999999999996          
         C73       1.0000    0.48100   0.28400   0.48700   Biso      1.000     C          -0.173765           
         C74       1.0000    0.60100   0.25500   0.99770   Biso      1.000     C          0.093132  
         C75       1.0000    0.46400   0.27600   0.64700   Biso      1.000     C          0.11465999999999998           
         C76       1.0000    0.71600   0.36800   0.29200   Biso      1.000     C          -0.153685           
         C77       1.0000    0.79900   0.22100   0.30100   Biso      1.000     C          -0.137544           
         C78       1.0000    0.87400   0.30400   0.19700   Biso      1.000     C          -0.029322000000000004         
         C79       1.0000    0.73200   0.29300   0.33300   Biso      1.000     C          0.116336  
         C80       1.0000    0.71400   0.21600   0.70100   Biso      1.000     C          -0.14366700000000002          
         C81       1.0000    0.77700   0.21600   0.77000   Biso      1.000     C          -0.104878           
         C82       1.0000    0.86000   0.22700   0.23500   Biso      1.000     C          -0.079949           
         C83       1.0000    0.38600   0.21500   0.65700   Biso      1.000     C          -0.144673           
         C84       1.0000    0.86200   0.28600   0.78900   Biso      1.000     C          -0.038359           
         C85       1.0000    0.87400   0.36100   0.74800   Biso      1.000     C          -0.10336600000000001          
         C86       1.0000    0.80400   0.36200   0.67200   Biso      1.000     C          -0.157444           
         C87       1.0000    0.72700   0.28800   0.65000   Biso      1.000     C          0.072421  
         C88       1.0000    0.78300   0.37700   0.22000   Biso      1.000     C          -0.09399500000000001          
         H1        1.0000    0.94100   0.87860   0.07380   Biso      1.000     H          0.166474  
         H2        1.0000    0.95200   0.03880   0.03750   Biso      1.000     H          0.057139999999999996          
         H3        1.0000    0.25100   0.03520   0.92860   Biso      1.000     H          0.11838499999999999           
         H4        1.0000    0.26500   0.85220   0.97240   Biso      1.000     H          0.149422  
         H5        1.0000    0.93280   0.56490   0.02100   Biso      1.000     H          0.091895  
         H6        1.0000    0.91740   0.73880   0.99860   Biso      1.000     H          0.160742  
         H7        1.0000    0.26780   0.71680   0.02850   Biso      1.000     H          0.10641199999999999           
         H8        1.0000    0.27210   0.56780   0.99120   Biso      1.000     H          0.11070799999999999           
         H9        1.0000    0.53370   0.40280   0.71720   Biso      1.000     H          0.120423  
         H10       1.0000    0.40440   0.41970   0.82730   Biso      1.000     H          0.10318900000000002           
         H11       1.0000    0.45200   0.96120   0.96250   Biso      1.000     H          0.057139999999999996          
         H12       1.0000    0.36840   0.16780   0.60970   Biso      1.000     H          0.116247  
         H13       1.0000    0.65950   0.41560   0.31070   Biso      1.000     H          0.119751  
         H14       1.0000    0.77170   0.42850   0.18640   Biso      1.000     H          0.113587  
         H15       1.0000    0.80160   0.16420   0.32800   Biso      1.000     H          0.107733  
         H16       1.0000    0.66000   0.16570   0.68540   Biso      1.000     H          0.111653  
         H17       1.0000    0.76450   0.16770   0.80720   Biso      1.000     H          0.10588299999999999           
         H18       1.0000    0.92650   0.41210   0.76600   Biso      1.000     H          0.126778  
         H19       1.0000    0.81050   0.41250   0.63670   Biso      1.000     H          0.10981300000000001           
         H20       1.0000    0.39910   0.27760   0.48340   Biso      1.000     H          0.10762200000000001           
         H21       1.0000    0.79640   0.29660   0.49560   Biso      1.000     H          0.132322  
         H22       1.0000    0.27580   0.43720   0.25160   Biso      1.000     H          0.114072  
         H23       1.0000    0.38900   0.43190   0.37470   Biso      1.000     H          0.111195  
         H24       1.0000    0.52020   0.17460   0.27470   Biso      1.000     H          0.115247  
         H25       1.0000    0.40690   0.17990   0.15160   Biso      1.000     H          0.106973  
         H26       1.0000    0.28720   0.15470   0.73600   Biso      1.000     H          0.09971000000000001           
         H27       1.0000    0.89860   0.17020   0.21030   Biso      1.000     H          0.101963  
         H28       1.0000    0.90440   0.58030   0.17270   Biso      1.000     H          0.10318800000000002           
         H29       1.0000    0.30160   0.83580   0.67200   Biso      1.000     H          0.10772899999999999           
         H30       1.0000    0.02020   0.82540   0.72530   Biso      1.000     H          0.115247  
         H31       1.0000    0.88900   0.56810   0.62530   Biso      1.000     H          0.111194  
         H32       1.0000    0.77580   0.56280   0.74840   Biso      1.000     H          0.114072  
         H33       1.0000    0.29640   0.70340   0.50440   Biso      1.000     H          0.132321  
         H34       1.0000    0.89910   0.72240   0.51660   Biso      1.000     H          0.107627  
         H35       1.0000    0.31050   0.58750   0.36330   Biso      1.000     H          0.10981300000000001           
         H36       1.0000    0.42650   0.58790   0.23400   Biso      1.000     H          0.126777  
         H37       1.0000    0.26450   0.83230   0.19280   Biso      1.000     H          0.10588299999999999           
         H38       1.0000    0.16000   0.83430   0.31460   Biso      1.000     H          0.111653  
         H39       1.0000    0.44100   0.12140   0.92620   Biso      1.000     H          0.166474  
         H40       1.0000    0.90690   0.82010   0.84840   Biso      1.000     H          0.106973  
         H41       1.0000    0.39860   0.82980   0.78970   Biso      1.000     H          0.10196799999999999           
         H42       1.0000    0.15950   0.58440   0.68930   Biso      1.000     H          0.119751  
         H43       1.0000    0.86840   0.83220   0.39030   Biso      1.000     H          0.116253  
         H44       1.0000    0.78720   0.84530   0.26400   Biso      1.000     H          0.099709  
         H45       1.0000    0.03370   0.59720   0.28280   Biso      1.000     H          0.120424  
         H46       1.0000    0.77210   0.43220   0.00880   Biso      1.000     H          0.11070799999999999           
         H47       1.0000    0.76780   0.28320   0.97150   Biso      1.000     H          0.10641199999999999           
         H48       1.0000    0.41740   0.26120   0.00140   Biso      1.000     H          0.160742  
         H49       1.0000    0.43280   0.43510   0.97900   Biso      1.000     H          0.091895  
         H50       1.0000    0.76500   0.14780   0.02760   Biso      1.000     H          0.149422  
         H51       1.0000    0.75100   0.96480   0.07140   Biso      1.000     H          0.11838499999999999           
         H52       1.0000    0.27170   0.57150   0.81360   Biso      1.000     H          0.113587  
         N1        1.0000    0.59400   0.94470   0.01430   Biso      1.000     N          -0.16652899999999998          
         N2        1.0000    0.09400   0.05530   0.98570   Biso      1.000     N          -0.16652899999999998          
         N3        1.0000    0.59700   0.45010   0.99380   Biso      1.000     N          -0.202549           
         N4        1.0000    0.09700   0.54990   0.00620   Biso      1.000     N          -0.202548           
         O1        1.0000    0.98340   0.21600   0.88770   Biso      1.000     O          -0.498352           
         O2        1.0000    0.72910   0.77680   0.93260   Biso      1.000     O          -0.6264270000000001           
         O3        1.0000    0.73200   0.62400   0.08030   Biso      1.000     O          -0.517634           
         O4        1.0000    0.49120   0.76530   0.91460   Biso      1.000     O          -0.5444   
         O5        1.0000    0.48600   0.61000   0.89880   Biso      1.000     O          -0.590424           
         O6        1.0000    0.72900   0.61500   0.91380   Biso      1.000     O          -0.445413           
         O7        1.0000    0.73380   0.79100   0.09640   Biso      1.000     O          -0.592183           
         O8        1.0000    0.48340   0.78400   0.11230   Biso      1.000     O          -0.498352           
         O9        1.0000    0.48330   0.63600   0.09530   Biso      1.000     O          -0.6261329999999999           
         O10       1.0000    0.98330   0.36400   0.90470   Biso      1.000     O          -0.6261329999999999           
         O11       1.0000    0.98600   0.39000   0.10120   Biso      1.000     O          -0.590424           
         O12       1.0000    0.99120   0.23470   0.08540   Biso      1.000     O          -0.544401           
         O13       1.0000    0.23380   0.20900   0.90360   Biso      1.000     O          -0.592183           
         O14       1.0000    0.23200   0.37600   0.91970   Biso      1.000     O          -0.517634           
         O15       1.0000    0.22910   0.22320   0.06740   Biso      1.000     O          -0.6264270000000001           
         O16       1.0000    0.22900   0.38500   0.08620   Biso      1.000     O          -0.445413           
         Zn1       1.0000    0.59520   0.80430   0.01692   Biso      1.000     Zn          0.8523219999999999  
         Zn2       1.0000    0.09560   0.40460   0.00210   Biso      1.000     Zn          0.828362  
         Zn3       1.0000    0.59560   0.59540   0.99790   Biso      1.000     Zn          0.828362  
         Zn4       1.0000    0.09520   0.19570   0.98308   Biso      1.000     Zn          0.8523219999999999 