
##########################################################################
#               Crystallographic Information Format file
#               Produced by PyCifRW module
#
#  This is a CIF file.  CIF has been adopted by the International
#  Union of Crystallography as the standard for data archiving and
#  transmission.
#
#  For information on this file format, follow the CIF links at
#  http://www.iucr.org
##########################################################################

data_image0

_cell_length_a                          11.6151
_cell_length_b                          15.648
_cell_length_c                          18.163
_cell_angle_alpha                       90
_cell_angle_beta                        93.202
_cell_angle_gamma                       90
_symmetry_space_group_name_H-M          'P 1'
_symmetry_int_tables_number             1
loop_
  _symmetry_equiv_pos_as_xyz
         'x, y, z' 
loop_
  _atom_site_label
  _atom_site_occupancy
  _atom_site_fract_x
  _atom_site_fract_y
  _atom_site_fract_z
  _atom_site_thermal_displace_type
  _atom_site_B_iso_or_equiv
  _atom_site_type_symbol
  _atom_site_charge
         Br1       1.0000    0.21933   0.50000   0.00062   Biso      1.000     Br          -0.09359400000000001          
         Br2       1.0000    0.78067   0.50000   0.99938   Biso      1.000     Br          -0.09359400000000001          
         C1        1.0000    0.15150   0.11560   0.99900   Biso      1.000     C          0.610284  
         C2        1.0000    0.62660   0.33930   0.99990   Biso      1.000     C          0.10035   
         C3        1.0000    0.56260   0.42230   0.99950   Biso      1.000     C          -0.015112           
         C4        1.0000    0.84850   0.11560   0.00100   Biso      1.000     C          0.610284  
         C5        1.0000    0.76480   0.19410   0.00000   Biso      1.000     C          -0.029550999999999997         
         C6        1.0000    0.34890   0.30410   0.06320   Biso      1.000     C          -0.158472           
         C7        1.0000    0.33360   0.30330   0.93450   Biso      1.000     C          -0.154645           
         C8        1.0000    0.27590   0.22850   0.06650   Biso      1.000     C          -0.10909  
         C9        1.0000    0.72410   0.22850   0.93350   Biso      1.000     C          -0.10909400000000001          
         C10       1.0000    0.37340   0.33930   0.00010   Biso      1.000     C          0.100387  
         C11       1.0000    0.43740   0.42230   0.00050   Biso      1.000     C          -0.015115           
         C12       1.0000    0.23520   0.19410   0.00000   Biso      1.000     C          -0.029550999999999997         
         C13       1.0000    0.34890   0.69590   0.06320   Biso      1.000     C          -0.158471           
         C14       1.0000    0.26570   0.77190   0.93430   Biso      1.000     C          -0.10625599999999999          
         C15       1.0000    0.26570   0.22810   0.93430   Biso      1.000     C          -0.106249           
         C16       1.0000    0.73430   0.22810   0.06570   Biso      1.000     C          -0.10625  
         C17       1.0000    0.65110   0.30410   0.93680   Biso      1.000     C          -0.158433           
         C18       1.0000    0.27590   0.77150   0.06650   Biso      1.000     C          -0.10909100000000001          
         C19       1.0000    0.38440   0.50000   0.99710   Biso      1.000     C          0.024596  
         C20       1.0000    0.61560   0.50000   0.00290   Biso      1.000     C          0.024595  
         C21       1.0000    0.00128   0.00000   0.43010   Biso      1.000     C          0.256226  
         C22       1.0000    0.10590   0.00000   0.30980   Biso      1.000     C          -0.166075           
         C23       1.0000    0.00279   0.00000   0.34710   Biso      1.000     C          0.061724  
         C24       1.0000    0.90460   0.00000   0.30080   Biso      1.000     C          -0.163347           
         C25       1.0000    0.66640   0.30330   0.06550   Biso      1.000     C          -0.154639           
         C26       1.0000    0.10310   0.00000   0.23270   Biso      1.000     C          0.100552  
         C27       1.0000    0.99872   0.00000   0.56990   Biso      1.000     C          0.256226  
         C28       1.0000    0.89410   0.00000   0.69020   Biso      1.000     C          -0.166075           
         C29       1.0000    0.99721   0.00000   0.65290   Biso      1.000     C          0.061724  
         C30       1.0000    0.09540   0.00000   0.69920   Biso      1.000     C          -0.163347           
         C31       1.0000    0.89690   0.00000   0.76730   Biso      1.000     C          0.100552  
         C32       1.0000    0.09020   0.00000   0.77470   Biso      1.000     C          0.119434  
         C33       1.0000    0.90980   0.00000   0.22530   Biso      1.000     C          0.119434  
         C34       1.0000    0.37340   0.66070   0.00010   Biso      1.000     C          0.100384  
         C35       1.0000    0.33360   0.69670   0.93450   Biso      1.000     C          -0.154642           
         C36       1.0000    0.15150   0.88440   0.99900   Biso      1.000     C          0.610284  
         C37       1.0000    0.84850   0.88440   0.00100   Biso      1.000     C          0.610284  
         C38       1.0000    0.56260   0.57770   0.99950   Biso      1.000     C          -0.015105           
         C39       1.0000    0.62660   0.66070   0.99990   Biso      1.000     C          0.10034900000000001           
         C40       1.0000    0.72410   0.77150   0.93350   Biso      1.000     C          -0.109096           
         C41       1.0000    0.76480   0.80590   0.00000   Biso      1.000     C          -0.02955  
         C42       1.0000    0.43740   0.57770   0.00050   Biso      1.000     C          -0.015108000000000002         
         C43       1.0000    0.66640   0.69670   0.06550   Biso      1.000     C          -0.154639           
         C44       1.0000    0.65110   0.69590   0.93680   Biso      1.000     C          -0.158433           
         C45       1.0000    0.23520   0.80590   0.00000   Biso      1.000     C          -0.029544           
         C46       1.0000    0.73430   0.77190   0.06570   Biso      1.000     C          -0.10625  
         H1        1.0000    0.35120   0.32830   0.89020   Biso      1.000     H          0.112977  
         H2        1.0000    0.24200   0.20200   0.89000   Biso      1.000     H          0.113748  
         H3        1.0000    0.25760   0.20460   0.11120   Biso      1.000     H          0.11912400000000001           
         H4        1.0000    0.37900   0.67180   0.10690   Biso      1.000     H          0.112042  
         H5        1.0000    0.35120   0.67170   0.89020   Biso      1.000     H          0.112976  
         H6        1.0000    0.75800   0.79800   0.11000   Biso      1.000     H          0.113748  
         H7        1.0000    0.62100   0.67180   0.89310   Biso      1.000     H          0.11203900000000001           
         H8        1.0000    0.64880   0.67170   0.10980   Biso      1.000     H          0.112976  
         H9        1.0000    0.37900   0.32820   0.10690   Biso      1.000     H          0.112042  
         H10       1.0000    0.74240   0.79540   0.88880   Biso      1.000     H          0.11912400000000001           
         H11       1.0000    0.24200   0.79800   0.89000   Biso      1.000     H          0.113748  
         H12       1.0000    0.25760   0.79540   0.11120   Biso      1.000     H          0.11912400000000001           
         H13       1.0000    0.75800   0.20200   0.11000   Biso      1.000     H          0.113748  
         H14       1.0000    0.64880   0.32830   0.10980   Biso      1.000     H          0.112976  
         H15       1.0000    0.74240   0.20460   0.88880   Biso      1.000     H          0.11912400000000001           
         H16       1.0000    0.17650   0.00000   0.33660   Biso      1.000     H          0.131853  
         H17       1.0000    0.17300   0.00000   0.21010   Biso      1.000     H          0.112452  
         H18       1.0000    0.84020   0.00000   0.19740   Biso      1.000     H          0.107866  
         H19       1.0000    0.83290   0.00000   0.32110   Biso      1.000     H          0.130427  
         H20       1.0000    0.16710   0.00000   0.67890   Biso      1.000     H          0.130427  
         H21       1.0000    0.82700   0.00000   0.78990   Biso      1.000     H          0.112452  
         H22       1.0000    0.15980   0.00000   0.80260   Biso      1.000     H          0.107866  
         H23       1.0000    0.62100   0.32820   0.89310   Biso      1.000     H          0.11203900000000001           
         H24       1.0000    0.82350   0.00000   0.66340   Biso      1.000     H          0.131853  
         N1        1.0000    0.89690   0.00000   0.53280   Biso      1.000     N          -0.123707           
         N2        1.0000    0.10310   0.00000   0.46720   Biso      1.000     N          -0.123707           
         N3        1.0000    0.90020   0.00000   0.46130   Biso      1.000     N          -0.143171           
         N4        1.0000    0.99434   0.00000   0.81070   Biso      1.000     N          -0.158113           
         N5        1.0000    0.09980   0.00000   0.53870   Biso      1.000     N          -0.143171           
         N6        1.0000    0.00566   0.00000   0.18930   Biso      1.000     N          -0.158113           
         O1        1.0000    0.12970   0.09110   0.06050   Biso      1.000     O          -0.544569           
         O2        1.0000    0.11620   0.90910   0.93740   Biso      1.000     O          -0.55215  
         O3        1.0000    0.11620   0.09090   0.93740   Biso      1.000     O          -0.55215  
         O4        1.0000    0.12970   0.90890   0.06050   Biso      1.000     O          -0.544569           
         O5        1.0000    0.88380   0.09090   0.06260   Biso      1.000     O          -0.55215  
         O6        1.0000    0.87030   0.90890   0.93950   Biso      1.000     O          -0.544569           
         O7        1.0000    0.87030   0.09110   0.93950   Biso      1.000     O          -0.544569           
         O8        1.0000    0.88380   0.90910   0.06260   Biso      1.000     O          -0.55215  
         Zn1       1.0000    0.00762   0.00000   0.08107   Biso      1.000     Zn          0.8054279999999999  
         Zn2       1.0000    0.99238   0.00000   0.91893   Biso      1.000     Zn          0.8054279999999999 