
##########################################################################
#               Crystallographic Information Format file
#               Produced by PyCifRW module
#
#  This is a CIF file.  CIF has been adopted by the International
#  Union of Crystallography as the standard for data archiving and
#  transmission.
#
#  For information on this file format, follow the CIF links at
#  http://www.iucr.org
##########################################################################

data_image0

_cell_length_a                          11.5857
_cell_length_b                          15.674
_cell_length_c                          18.118
_cell_angle_alpha                       90
_cell_angle_beta                        90
_cell_angle_gamma                       90
_symmetry_space_group_name_H-M          'P 1'
_symmetry_int_tables_number             1
loop_
  _symmetry_equiv_pos_as_xyz
         'x, y, z' 
loop_
  _atom_site_label
  _atom_site_occupancy
  _atom_site_fract_x
  _atom_site_fract_y
  _atom_site_fract_z
  _atom_site_thermal_displace_type
  _atom_site_B_iso_or_equiv
  _atom_site_type_symbol
  _atom_site_charge
         C1        1.0000    0.13160   0.77700   0.10116   Biso      1.000     C          -0.143838           
         C2        1.0000    0.98360   0.74435   0.21246   Biso      1.000     C          -0.099209           
         C3        1.0000    0.75486   0.50942   0.57854   Biso      1.000     C          0.245161  
         C4        1.0000    0.75391   0.50480   0.49727   Biso      1.000     C          0.057598  
         C5        1.0000    0.65690   0.51212   0.45429   Biso      1.000     C          -0.164825           
         C6        1.0000    0.85280   0.48898   0.37960   Biso      1.000     C          0.11182   
         C7        1.0000    0.85220   0.49353   0.45553   Biso      1.000     C          -0.167732           
         C8        1.0000    0.43690   0.28830   0.09020   Biso      1.000     C          -0.104749           
         C9        1.0000    0.06350   0.70430   0.09400   Biso      1.000     C          -0.107414           
         C10       1.0000    0.37080   0.21500   0.09240   Biso      1.000     C          -0.142417           
         C11       1.0000    0.75873   0.51234   0.71367   Biso      1.000     C          0.267309  
         C12       1.0000    0.46790   0.16260   0.19990   Biso      1.000     C          -0.159853           
         C13       1.0000    0.05390   0.81370   0.21960   Biso      1.000     C          -0.167116           
         C14       1.0000    0.35280   0.51102   0.62040   Biso      1.000     C          0.11182   
         C15       1.0000    0.15770   0.49252   0.62163   Biso      1.000     C          0.1018    
         C16       1.0000    0.14150   0.21930   0.20550   Biso      1.000     C          -0.147927           
         C17       1.0000    0.15690   0.48788   0.54571   Biso      1.000     C          -0.164826           
         C18       1.0000    0.25391   0.49520   0.50273   Biso      1.000     C          0.0576    
         C19       1.0000    0.25486   0.49058   0.42146   Biso      1.000     C          0.245156  
         C20       1.0000    0.63160   0.22300   0.89884   Biso      1.000     C          -0.143838           
         C21       1.0000    0.87080   0.78500   0.90760   Biso      1.000     C          -0.142417           
         C22       1.0000    0.55390   0.18630   0.78040   Biso      1.000     C          -0.167125           
         C23       1.0000    0.96790   0.83740   0.80010   Biso      1.000     C          -0.159853           
         C24       1.0000    0.25873   0.48766   0.28633   Biso      1.000     C          0.267312  
         C25       1.0000    0.56350   0.29570   0.90600   Biso      1.000     C          -0.107414           
         C26       1.0000    0.93690   0.71170   0.90980   Biso      1.000     C          -0.104749           
         C27       1.0000    0.53440   0.23670   0.19710   Biso      1.000     C          -0.116865           
         C28       1.0000    0.75900   0.50509   0.79490   Biso      1.000     C          0.048077  
         C29       1.0000    0.85510   0.48720   0.91520   Biso      1.000     C          0.098842  
         C30       1.0000    0.66250   0.50511   0.91652   Biso      1.000     C          0.108777  
         C31       1.0000    0.45580   0.70517   0.20170   Biso      1.000     C          -0.101242           
         C32       1.0000    0.06630   0.28820   0.20450   Biso      1.000     C          -0.113515           
         C33       1.0000    0.45960   0.82130   0.08790   Biso      1.000     C          -0.16422  
         C34       1.0000    0.04500   0.16490   0.10500   Biso      1.000     C          -0.156402           
         C35       1.0000    0.52617   0.74756   0.08997   Biso      1.000     C          -0.070593           
         C36       1.0000    0.97050   0.23440   0.09940   Biso      1.000     C          -0.110663           
         C37       1.0000    0.30820   0.91010   0.15770   Biso      1.000     C          0.002452  
         C38       1.0000    0.19390   0.06730   0.16010   Biso      1.000     C          0.045194  
         C39       1.0000    0.14090   0.99380   0.16730   Biso      1.000     C          -0.193705           
         C40       1.0000    0.37290   0.99180   0.14720   Biso      1.000     C          -0.2234   
         C41       1.0000    0.98690   0.68810   0.15253   Biso      1.000     C          -0.042498           
         C42       1.0000    0.52710   0.29620   0.13993   Biso      1.000     C          -0.032088           
         C43       1.0000    0.48360   0.25565   0.78754   Biso      1.000     C          -0.0992   
         C44       1.0000    0.90650   0.61680   0.14450   Biso      1.000     C          0.625951  
         C45       1.0000    0.18920   0.91440   0.16310   Biso      1.000     C          0.043899  
         C46       1.0000    0.31560   0.07410   0.14500   Biso      1.000     C          0.017509  
         C47       1.0000    0.85660   0.49375   0.83916   Biso      1.000     C          -0.159499           
         C48       1.0000    0.66050   0.51236   0.84027   Biso      1.000     C          -0.146972           
         C49       1.0000    0.12350   0.83358   0.16036   Biso      1.000     C          0.087159  
         C50       1.0000    0.39000   0.15070   0.14238   Biso      1.000     C          0.090685  
         C51       1.0000    0.38680   0.83547   0.14802   Biso      1.000     C          0.111149  
         C52       1.0000    0.12680   0.14854   0.16041   Biso      1.000     C          0.088239  
         C53       1.0000    0.59973   0.60637   0.14904   Biso      1.000     C          0.549611  
         C54       1.0000    0.90060   0.37320   0.15170   Biso      1.000     C          0.507417  
         C55       1.0000    0.53059   0.68535   0.14446   Biso      1.000     C          -0.024119           
         C56       1.0000    0.97820   0.29762   0.15335   Biso      1.000     C          0.0078    
         C57       1.0000    0.60590   0.37120   0.14040   Biso      1.000     C          0.652016  
         C58       1.0000    0.03440   0.76330   0.80290   Biso      1.000     C          -0.116865           
         C59       1.0000    0.35220   0.50647   0.54447   Biso      1.000     C          -0.167735           
         C60       1.0000    0.35510   0.51280   0.08480   Biso      1.000     C          0.098841  
         C61       1.0000    0.65770   0.50748   0.37837   Biso      1.000     C          0.1018    
         C62       1.0000    0.25900   0.49491   0.20510   Biso      1.000     C          0.048078  
         C63       1.0000    0.47820   0.70238   0.84665   Biso      1.000     C          0.007799  
         C64       1.0000    0.03059   0.31465   0.85554   Biso      1.000     C          -0.024119           
         C65       1.0000    0.40060   0.62680   0.84830   Biso      1.000     C          0.507417  
         C66       1.0000    0.09973   0.39363   0.85096   Biso      1.000     C          0.549611  
         C67       1.0000    0.62680   0.85146   0.83959   Biso      1.000     C          0.088235  
         C68       1.0000    0.88680   0.16453   0.85198   Biso      1.000     C          0.111148  
         C69       1.0000    0.89000   0.84930   0.85762   Biso      1.000     C          0.090686  
         C70       1.0000    0.62350   0.16642   0.83964   Biso      1.000     C          0.087161  
         C71       1.0000    0.16050   0.48764   0.15973   Biso      1.000     C          -0.146979           
         C72       1.0000    0.35660   0.50625   0.16084   Biso      1.000     C          -0.159497           
         C73       1.0000    0.81560   0.92590   0.85500   Biso      1.000     C          0.017505  
         C74       1.0000    0.68920   0.08560   0.83690   Biso      1.000     C          0.043899  
         C75       1.0000    0.10590   0.62880   0.85960   Biso      1.000     C          0.652016  
         C76       1.0000    0.38490   0.77694   0.20620   Biso      1.000     C          -0.169432           
         C77       1.0000    0.02710   0.70380   0.86007   Biso      1.000     C          -0.032088           
         C78       1.0000    0.40650   0.38320   0.85550   Biso      1.000     C          0.625951  
         C79       1.0000    0.16250   0.49489   0.08348   Biso      1.000     C          0.108782  
         C80       1.0000    0.95580   0.29483   0.79830   Biso      1.000     C          -0.101242           
         C81       1.0000    0.56630   0.71180   0.79550   Biso      1.000     C          -0.113513           
         C82       1.0000    0.95960   0.17870   0.91210   Biso      1.000     C          -0.16422  
         C83       1.0000    0.54500   0.83510   0.89500   Biso      1.000     C          -0.156401           
         C84       1.0000    0.64150   0.78070   0.79450   Biso      1.000     C          -0.147927           
         C85       1.0000    0.47050   0.76560   0.90060   Biso      1.000     C          -0.110663           
         C86       1.0000    0.48690   0.31190   0.84747   Biso      1.000     C          -0.0425   
         C87       1.0000    0.02617   0.25244   0.91003   Biso      1.000     C          -0.070593           
         C88       1.0000    0.87290   0.00820   0.85280   Biso      1.000     C          -0.223399           
         C89       1.0000    0.88490   0.22306   0.79380   Biso      1.000     C          -0.169432           
         C90       1.0000    0.64090   0.00620   0.83270   Biso      1.000     C          -0.193745           
         C91       1.0000    0.69390   0.93270   0.83990   Biso      1.000     C          0.045236  
         C92       1.0000    0.80820   0.08990   0.84230   Biso      1.000     C          0.002453  
         H1        1.0000    0.68550   0.21150   0.93560   Biso      1.000     H          0.113328  
         H2        1.0000    0.81090   0.79110   0.94140   Biso      1.000     H          0.117173  
         H3        1.0000    0.97520   0.87670   0.76190   Biso      1.000     H          0.122785  
         H4        1.0000    0.56840   0.33140   0.94690   Biso      1.000     H          0.12166   
         H5        1.0000    0.92120   0.66870   0.94370   Biso      1.000     H          0.11743   
         H6        1.0000    0.43020   0.26620   0.75030   Biso      1.000     H          0.110912  
         H7        1.0000    0.08620   0.75300   0.76470   Biso      1.000     H          0.113794  
         H8        1.0000    0.42500   0.52210   0.06080   Biso      1.000     H          0.105615  
         H9        1.0000    0.09260   0.49140   0.05840   Biso      1.000     H          0.10935   
         H10       1.0000    0.55480   0.15380   0.73740   Biso      1.000     H          0.121144  
         H11       1.0000    0.07410   0.26130   0.95050   Biso      1.000     H          0.101571  
         H12       1.0000    0.70410   0.77950   0.76230   Biso      1.000     H          0.108805  
         H13       1.0000    0.95250   0.33310   0.75910   Biso      1.000     H          0.09415   
         H14       1.0000    0.57560   0.66960   0.75990   Biso      1.000     H          0.100692  
         H15       1.0000    0.96340   0.14070   0.95150   Biso      1.000     H          0.125824  
         H16       1.0000    0.54000   0.87550   0.93240   Biso      1.000     H          0.098939  
         H17       1.0000    0.08650   0.47930   0.52220   Biso      1.000     H          0.106671  
         H18       1.0000    0.41750   0.76150   0.93900   Biso      1.000     H          0.120087  
         H19       1.0000    0.56190   0.00400   0.82380   Biso      1.000     H          0.119402  
         H20       1.0000    0.95270   0.01020   0.85800   Biso      1.000     H          0.123788  
         H21       1.0000    0.42780   0.50970   0.18430   Biso      1.000     H          0.112869  
         H22       1.0000    0.08980   0.47730   0.18240   Biso      1.000     H          0.124388  
         H23       1.0000    0.83740   0.21440   0.75310   Biso      1.000     H          0.121801  
         H24       1.0000    0.42240   0.51130   0.51990   Biso      1.000     H          0.105105  
         H25       1.0000    0.05480   0.84620   0.26260   Biso      1.000     H          0.121143  
         H26       1.0000    0.92220   0.48080   0.35480   Biso      1.000     H          0.104765  
         H27       1.0000    0.42220   0.51920   0.64520   Biso      1.000     H          0.104765  
         H28       1.0000    0.58980   0.52270   0.81760   Biso      1.000     H          0.124389  
         H29       1.0000    0.92780   0.49030   0.81570   Biso      1.000     H          0.112868  
         H30       1.0000    0.45270   0.98980   0.14200   Biso      1.000     H          0.123788  
         H31       1.0000    0.06190   0.99600   0.17620   Biso      1.000     H          0.119399  
         H32       1.0000    0.91750   0.23850   0.06100   Biso      1.000     H          0.120087  
         H33       1.0000    0.57410   0.73870   0.04950   Biso      1.000     H          0.101571  
         H34       1.0000    0.04000   0.12450   0.06760   Biso      1.000     H          0.098939  
         H35       1.0000    0.46340   0.85930   0.04850   Biso      1.000     H          0.125825  
         H36       1.0000    0.07560   0.33040   0.24010   Biso      1.000     H          0.100692  
         H37       1.0000    0.45250   0.66690   0.24090   Biso      1.000     H          0.094151  
         H38       1.0000    0.08860   0.48760   0.64740   Biso      1.000     H          0.100642  
         H39       1.0000    0.20410   0.22050   0.23770   Biso      1.000     H          0.108805  
         H40       1.0000    0.92500   0.47790   0.93920   Biso      1.000     H          0.105615  
         H41       1.0000    0.58620   0.24700   0.23530   Biso      1.000     H          0.113794  
         H42       1.0000    0.93020   0.73380   0.24970   Biso      1.000     H          0.110912  
         H43       1.0000    0.42120   0.33130   0.05630   Biso      1.000     H          0.11743   
         H44       1.0000    0.06840   0.66860   0.05310   Biso      1.000     H          0.12166   
         H45       1.0000    0.47520   0.12330   0.23810   Biso      1.000     H          0.122785  
         H46       1.0000    0.31090   0.20890   0.05860   Biso      1.000     H          0.117173  
         H47       1.0000    0.18550   0.78850   0.06440   Biso      1.000     H          0.113328  
         H48       1.0000    0.58650   0.52070   0.47780   Biso      1.000     H          0.106669  
         H49       1.0000    0.92240   0.48870   0.48010   Biso      1.000     H          0.105107  
         H50       1.0000    0.58860   0.51240   0.35260   Biso      1.000     H          0.100642  
         H51       1.0000    0.59260   0.50860   0.94160   Biso      1.000     H          0.10935   
         H52       1.0000    0.33740   0.78560   0.24690   Biso      1.000     H          0.121801  
         N1        1.0000    0.75926   0.49336   0.95690   Biso      1.000     N          -0.168558           
         N2        1.0000    0.65930   0.52440   0.67892   Biso      1.000     N          -0.127535           
         N3        1.0000    0.85630   0.50194   0.61101   Biso      1.000     N          -0.133697           
         N4        1.0000    0.65020   0.52119   0.60770   Biso      1.000     N          -0.094597           
         N5        1.0000    0.75537   0.49608   0.34121   Biso      1.000     N          -0.16898  
         N6        1.0000    0.25537   0.50392   0.65879   Biso      1.000     N          -0.16898  
         N7        1.0000    0.15020   0.47881   0.39230   Biso      1.000     N          -0.094648           
         N8        1.0000    0.15930   0.47560   0.32108   Biso      1.000     N          -0.127483           
         N9        1.0000    0.35980   0.49464   0.31812   Biso      1.000     N          -0.101936           
         N10       1.0000    0.25926   0.50664   0.04310   Biso      1.000     N          -0.168558           
         N11       1.0000    0.85980   0.50536   0.68188   Biso      1.000     N          -0.101853           
         N12       1.0000    0.35630   0.49806   0.38899   Biso      1.000     N          -0.133613           
         O1        1.0000    0.35560   0.40450   0.79379   Biso      1.000     O          -0.637666           
         O2        1.0000    0.63900   0.57820   0.07650   Biso      1.000     O          -0.589236           
         O3        1.0000    0.64600   0.39655   0.08387   Biso      1.000     O          -0.576155           
         O4        1.0000    0.89470   0.41340   0.21650   Biso      1.000     O          -0.512492           
         O5        1.0000    0.61490   0.57480   0.21010   Biso      1.000     O          -0.461317           
         O6        1.0000    0.89550   0.41450   0.08160   Biso      1.000     O          -0.537029           
         O7        1.0000    0.88210   0.58642   0.08884   Biso      1.000     O          -0.509178           
         O8        1.0000    0.85560   0.59550   0.20621   Biso      1.000     O          -0.637667           
         O9        1.0000    0.64610   0.39070   0.19787   Biso      1.000     O          -0.58376  
         O10       1.0000    0.14610   0.60930   0.80213   Biso      1.000     O          -0.58376  
         O11       1.0000    0.11490   0.42520   0.78990   Biso      1.000     O          -0.461318           
         O12       1.0000    0.39470   0.58660   0.78350   Biso      1.000     O          -0.512492           
         O13       1.0000    0.38210   0.41358   0.91116   Biso      1.000     O          -0.509177           
         O14       1.0000    0.14600   0.60345   0.91613   Biso      1.000     O          -0.576154           
         O15       1.0000    0.13900   0.42180   0.92350   Biso      1.000     O          -0.589236           
         O16       1.0000    0.39550   0.58550   0.91840   Biso      1.000     O          -0.537029           
         Zn1       1.0000    0.75074   0.49281   0.22585   Biso      1.000     Zn          0.815617  
         Zn2       1.0000    0.25777   0.50573   0.93552   Biso      1.000     Zn          0.825581  
         Zn3       1.0000    0.75777   0.49427   0.06448   Biso      1.000     Zn          0.825581  
         Zn4       1.0000    0.25074   0.50719   0.77415   Biso      1.000     Zn          0.815617 