
##########################################################################
#               Crystallographic Information Format file
#               Produced by PyCifRW module
#
#  This is a CIF file.  CIF has been adopted by the International
#  Union of Crystallography as the standard for data archiving and
#  transmission.
#
#  For information on this file format, follow the CIF links at
#  http://www.iucr.org
##########################################################################

data_image0

_cell_length_a                          10.015
_cell_length_b                          6.6124
_cell_length_c                          12.4721
_cell_angle_alpha                       90
_cell_angle_beta                        109.412
_cell_angle_gamma                       90
_symmetry_space_group_name_H-M          'P 1'
_symmetry_int_tables_number             1
loop_
  _symmetry_equiv_pos_as_xyz
         'x, y, z' 
loop_
  _atom_site_label
  _atom_site_occupancy
  _atom_site_fract_x
  _atom_site_fract_y
  _atom_site_fract_z
  _atom_site_thermal_displace_type
  _atom_site_B_iso_or_equiv
  _atom_site_type_symbol
  _atom_site_charge
         C1        1.0000    0.84670   0.75000   0.98480   Biso      1.000     C          -0.12086199999999998          
         C2        1.0000    0.37060   0.25000   0.17080   Biso      1.000     C          -0.10323  
         C3        1.0000    0.22210   0.25000   0.13330   Biso      1.000     C          -0.00417  
         C4        1.0000    0.15330   0.25000   0.01520   Biso      1.000     C          -0.120869           
         C5        1.0000    0.83880   0.75000   0.18720   Biso      1.000     C          0.30909899999999996           
         C6        1.0000    0.86210   0.75000   0.79020   Biso      1.000     C          0.579357  
         C7        1.0000    0.62670   0.75000   0.01700   Biso      1.000     C          -0.121831           
         C8        1.0000    0.76910   0.75000   0.05910   Biso      1.000     C          0.038389  
         C9        1.0000    0.60860   0.25000   0.14530   Biso      1.000     C          0.54651   
         C10       1.0000    0.77790   0.75000   0.86670   Biso      1.000     C          -0.004168           
         C11       1.0000    0.62940   0.75000   0.82920   Biso      1.000     C          -0.103219           
         C12       1.0000    0.44930   0.25000   0.10020   Biso      1.000     C          -0.003958           
         C13       1.0000    0.39140   0.75000   0.85470   Biso      1.000     C          0.546507  
         C14       1.0000    0.23090   0.25000   0.94090   Biso      1.000     C          0.038370999999999995          
         C15       1.0000    0.37330   0.25000   0.98300   Biso      1.000     C          -0.121825           
         C16       1.0000    0.55070   0.75000   0.89980   Biso      1.000     C          -0.00396  
         C17       1.0000    0.13790   0.25000   0.20980   Biso      1.000     C          0.5793470000000001  
         C18       1.0000    0.16120   0.25000   0.81280   Biso      1.000     C          0.309106  
         Cu1       1.0000    0.00000   0.50000   0.50000   Biso      1.000     Cu          0.7824909999999999  
         Cu2       1.0000    0.13580   0.75000   0.76730   Biso      1.000     Cu          0.87585   
         Cu3       1.0000    0.86420   0.25000   0.23270   Biso      1.000     Cu          0.875835  
         Cu4       1.0000    0.00000   0.00000   0.50000   Biso      1.000     Cu          0.771438  
         H1        1.0000    0.92210   0.75000   0.58790   Biso      1.000     H          0.39961399999999997           
         H2        1.0000    0.07790   0.25000   0.41210   Biso      1.000     H          0.399615  
         H3        1.0000    0.58160   0.75000   0.75120   Biso      1.000     H          0.12574200000000002           
         H4        1.0000    0.57640   0.75000   0.06770   Biso      1.000     H          0.120986  
         H5        1.0000    0.05490   0.25000   0.98630   Biso      1.000     H          0.13183599999999998           
         H6        1.0000    0.94510   0.75000   0.01370   Biso      1.000     H          0.13183699999999998           
         H7        1.0000    0.41840   0.25000   0.24880   Biso      1.000     H          0.125704  
         H8        1.0000    0.42360   0.25000   0.93230   Biso      1.000     H          0.12098900000000001           
         N1        1.0000    0.87510   0.91800   0.24840   Biso      1.000     N          -0.21131  
         N2        1.0000    0.12490   0.41800   0.75160   Biso      1.000     N          -0.209903           
         N3        1.0000    0.93050   0.84890   0.35440   Biso      1.000     N          -0.048706           
         N4        1.0000    0.93050   0.65110   0.35440   Biso      1.000     N          -0.051497           
         N5        1.0000    0.87510   0.58200   0.24840   Biso      1.000     N          -0.209869           
         N6        1.0000    0.06950   0.15110   0.64560   Biso      1.000     N          -0.048739           
         N7        1.0000    0.12490   0.08200   0.75160   Biso      1.000     N          -0.21129  
         N8        1.0000    0.06950   0.34890   0.64560   Biso      1.000     N          -0.05146799999999999          
         O1        1.0000    0.99500   0.25000   0.41650   Biso      1.000     O          -0.8718020000000001           
         O2        1.0000    0.00360   0.25000   0.16320   Biso      1.000     O          -0.549284           
         O3        1.0000    0.20010   0.25000   0.31630   Biso      1.000     O          -0.571852           
         O4        1.0000    0.99640   0.75000   0.83680   Biso      1.000     O          -0.549285           
         O5        1.0000    0.67340   0.25000   0.07480   Biso      1.000     O          -0.50695  
         O6        1.0000    0.00500   0.75000   0.58350   Biso      1.000     O          -0.8718100000000001           
         O7        1.0000    0.32660   0.75000   0.92520   Biso      1.000     O          -0.506943           
         O8        1.0000    0.32650   0.75000   0.74840   Biso      1.000     O          -0.528992           
         O9        1.0000    0.67350   0.25000   0.25160   Biso      1.000     O          -0.528986           
         O10       1.0000    0.79990   0.75000   0.68370   Biso      1.000     O          -0.5718439999999999 