
##########################################################################
#               Crystallographic Information Format file
#               Produced by PyCifRW module
#
#  This is a CIF file.  CIF has been adopted by the International
#  Union of Crystallography as the standard for data archiving and
#  transmission.
#
#  For information on this file format, follow the CIF links at
#  http://www.iucr.org
##########################################################################

data_image0

_cell_length_a                          12.793
_cell_length_b                          14.74
_cell_length_c                          15.183
_cell_angle_alpha                       90
_cell_angle_beta                        90
_cell_angle_gamma                       90
_symmetry_space_group_name_H-M          'P 1'
_symmetry_int_tables_number             1
loop_
  _symmetry_equiv_pos_as_xyz
         'x, y, z' 
loop_
  _atom_site_label
  _atom_site_occupancy
  _atom_site_fract_x
  _atom_site_fract_y
  _atom_site_fract_z
  _atom_site_thermal_displace_type
  _atom_site_B_iso_or_equiv
  _atom_site_type_symbol
  _atom_site_charge
         C1        1.0000    0.50320   0.14320   0.38110   Biso      1.000     C          -0.031857           
         C2        1.0000    0.37040   0.43140   0.21080   Biso      1.000     C          0.641031  
         C3        1.0000    0.19720   0.39210   0.43400   Biso      1.000     C          0.629254  
         C4        1.0000    0.13660   0.40470   0.51740   Biso      1.000     C          -0.027782           
         C5        1.0000    0.05740   0.34450   0.54180   Biso      1.000     C          -0.112127           
         C6        1.0000    0.00320   0.35680   0.61890   Biso      1.000     C          -0.031851           
         C7        1.0000    0.02670   0.42970   0.67340   Biso      1.000     C          -0.104091           
         C8        1.0000    0.10610   0.48960   0.65060   Biso      1.000     C          -0.024762           
         C9        1.0000    0.16090   0.47710   0.57410   Biso      1.000     C          -0.098577           
         C10       1.0000    0.91580   0.29360   0.64350   Biso      1.000     C          0.615067  
         C11       1.0000    0.12960   0.56860   0.71080   Biso      1.000     C          0.641032  
         C12       1.0000    0.58420   0.70640   0.14350   Biso      1.000     C          0.615067  
         C13       1.0000    0.69720   0.10790   0.56600   Biso      1.000     C          0.629254  
         C14       1.0000    0.55740   0.15550   0.45820   Biso      1.000     C          -0.112121           
         C15       1.0000    0.89390   0.98960   0.84940   Biso      1.000     C          -0.024762           
         C16       1.0000    0.52670   0.07030   0.32660   Biso      1.000     C          -0.10409  
         C17       1.0000    0.60610   0.01040   0.34940   Biso      1.000     C          -0.024762           
         C18       1.0000    0.66090   0.02290   0.42590   Biso      1.000     C          -0.098578           
         C19       1.0000    0.41580   0.20640   0.35650   Biso      1.000     C          0.615068  
         C20       1.0000    0.62960   0.93140   0.28920   Biso      1.000     C          0.641032  
         C21       1.0000    0.80280   0.89210   0.06600   Biso      1.000     C          0.629254  
         C22       1.0000    0.86340   0.90470   0.98260   Biso      1.000     C          -0.027782           
         C23       1.0000    0.94260   0.84450   0.95820   Biso      1.000     C          -0.112127           
         C24       1.0000    0.63660   0.09530   0.48260   Biso      1.000     C          -0.027783           
         C25       1.0000    0.33910   0.52290   0.07410   Biso      1.000     C          -0.098585           
         C26       1.0000    0.39390   0.51040   0.15060   Biso      1.000     C          -0.024755           
         C27       1.0000    0.47330   0.57030   0.17340   Biso      1.000     C          -0.104091           
         C28       1.0000    0.87040   0.06860   0.78920   Biso      1.000     C          0.641032  
         C29       1.0000    0.08420   0.79360   0.85650   Biso      1.000     C          0.615067  
         C30       1.0000    0.83910   0.97710   0.92590   Biso      1.000     C          -0.098577           
         C31       1.0000    0.99680   0.85680   0.88110   Biso      1.000     C          -0.03185  
         C32       1.0000    0.97330   0.92970   0.82660   Biso      1.000     C          -0.104091           
         C33       1.0000    0.49680   0.64320   0.11890   Biso      1.000     C          -0.031857           
         C34       1.0000    0.30280   0.60790   0.93400   Biso      1.000     C          0.629254  
         C35       1.0000    0.44260   0.65550   0.04180   Biso      1.000     C          -0.112121           
         C36       1.0000    0.36340   0.59530   0.01740   Biso      1.000     C          -0.027782           
         Cl1       1.0000    0.88735   0.70409   0.30403   Biso      1.000     Cl          -0.594072           
         Cl2       1.0000    0.61265   0.29591   0.80403   Biso      1.000     Cl          -0.594073           
         Cl3       1.0000    0.11265   0.20409   0.19597   Biso      1.000     Cl          -0.594072           
         Cl4       1.0000    0.38735   0.79591   0.69597   Biso      1.000     Cl          -0.594072           
         H1        1.0000    0.01080   0.93850   0.77490   Biso      1.000     H          0.119266  
         H2        1.0000    0.45870   0.70440   0.00550   Biso      1.000     H          0.116792  
         H3        1.0000    0.51080   0.56150   0.22510   Biso      1.000     H          0.119266  
         H4        1.0000    0.28530   0.48320   0.05960   Biso      1.000     H          0.127658  
         H5        1.0000    0.04130   0.29560   0.50550   Biso      1.000     H          0.116792  
         H6        1.0000    0.21470   0.51680   0.55960   Biso      1.000     H          0.127658  
         H7        1.0000    0.54130   0.20440   0.49450   Biso      1.000     H          0.116792  
         H8        1.0000    0.48920   0.06150   0.27490   Biso      1.000     H          0.119266  
         H9        1.0000    0.71470   0.98320   0.44040   Biso      1.000     H          0.127658  
         H10       1.0000    0.95870   0.79560   0.99450   Biso      1.000     H          0.116792  
         H11       1.0000    0.78530   0.01680   0.94040   Biso      1.000     H          0.127658  
         H12       1.0000    0.98920   0.43850   0.72510   Biso      1.000     H          0.119266  
         Mn1       1.0000    0.25747   0.71786   0.77420   Biso      1.000     Mn          0.959661  
         Mn2       1.0000    0.56008   0.91325   0.08673   Biso      1.000     Mn          1.122766  
         Mn3       1.0000    0.75747   0.78214   0.22580   Biso      1.000     Mn          0.959661  
         Mn4       1.0000    0.93992   0.08675   0.58673   Biso      1.000     Mn          1.122764  
         Mn5       1.0000    0.74253   0.21786   0.72580   Biso      1.000     Mn          0.959661  
         Mn6       1.0000    0.43992   0.41325   0.41327   Biso      1.000     Mn          1.122764  
         Mn7       1.0000    0.24253   0.28214   0.27420   Biso      1.000     Mn          0.959661  
         Mn8       1.0000    0.06008   0.58675   0.91327   Biso      1.000     Mn          1.122766  
         O1        1.0000    0.77490   0.05858   0.57870   Biso      1.000     O          -0.592215           
         O2        1.0000    0.39620   0.27157   0.40680   Biso      1.000     O          -0.616071           
         O3        1.0000    0.36460   0.19000   0.28860   Biso      1.000     O          -0.491457           
         O4        1.0000    0.57050   0.91690   0.22708   Biso      1.000     O          -0.609517           
         O5        1.0000    0.10380   0.72843   0.90680   Biso      1.000     O          -0.616072           
         O6        1.0000    0.83630   0.83220   0.11881   Biso      1.000     O          -0.517497           
         O7        1.0000    0.72510   0.94142   0.07870   Biso      1.000     O          -0.592215           
         O8        1.0000    0.66370   0.16780   0.61881   Biso      1.000     O          -0.517497           
         O9        1.0000    0.13540   0.81000   0.78860   Biso      1.000     O          -0.491457           
         O10       1.0000    0.70810   0.88480   0.30800   Biso      1.000     O          -0.511476           
         O11       1.0000    0.20810   0.61520   0.69200   Biso      1.000     O          -0.511476           
         O12       1.0000    0.89620   0.22843   0.59320   Biso      1.000     O          -0.616071           
         O13       1.0000    0.86460   0.31000   0.71140   Biso      1.000     O          -0.491457           
         O14       1.0000    0.92950   0.08310   0.72708   Biso      1.000     O          -0.609517           
         O15       1.0000    0.27490   0.44142   0.42130   Biso      1.000     O          -0.592215           
         O16       1.0000    0.16370   0.33220   0.38119   Biso      1.000     O          -0.517497           
         O17       1.0000    0.29190   0.38480   0.19200   Biso      1.000     O          -0.511476           
         O18       1.0000    0.42950   0.41690   0.27292   Biso      1.000     O          -0.609517           
         O19       1.0000    0.63540   0.69000   0.21140   Biso      1.000     O          -0.491457           
         O20       1.0000    0.60380   0.77157   0.09320   Biso      1.000     O          -0.616072           
         O21       1.0000    0.22510   0.55858   0.92130   Biso      1.000     O          -0.592215           
         O22       1.0000    0.33630   0.66780   0.88119   Biso      1.000     O          -0.517498           
         O23       1.0000    0.07050   0.58310   0.77292   Biso      1.000     O          -0.609517           
         O24       1.0000    0.79190   0.11520   0.80800   Biso      1.000     O          -0.511476 