
##########################################################################
#               Crystallographic Information Format file
#               Produced by PyCifRW module
#
#  This is a CIF file.  CIF has been adopted by the International
#  Union of Crystallography as the standard for data archiving and
#  transmission.
#
#  For information on this file format, follow the CIF links at
#  http://www.iucr.org
##########################################################################

data_image0

_cell_length_a                          6.72
_cell_length_b                          9.494
_cell_length_c                          10.682
_cell_angle_alpha                       111.979
_cell_angle_beta                        96.879
_cell_angle_gamma                       106.678
_symmetry_space_group_name_H-M          'P 1'
_symmetry_int_tables_number             1
loop_
  _symmetry_equiv_pos_as_xyz
         'x, y, z' 
loop_
  _atom_site_label
  _atom_site_occupancy
  _atom_site_fract_x
  _atom_site_fract_y
  _atom_site_fract_z
  _atom_site_thermal_displace_type
  _atom_site_B_iso_or_equiv
  _atom_site_type_symbol
  _atom_site_charge
         C1        1.0000    0.90810   0.71090   0.91220   Biso      1.000     C          -0.18729300000000002          
         C2        1.0000    0.14420   0.72260   0.30980   Biso      1.000     C          -0.32818800000000004          
         C3        1.0000    0.27550   0.11630   0.33140   Biso      1.000     C          -0.31798899999999997          
         C4        1.0000    0.05590   0.23250   0.96860   Biso      1.000     C          -0.305201           
         C5        1.0000    0.22350   0.08860   0.67220   Biso      1.000     C          -0.20909899999999998          
         C6        1.0000    0.11890   0.59480   0.29720   Biso      1.000     C          -0.23442800000000003          
         C7        1.0000    0.09190   0.28910   0.08780   Biso      1.000     C          -0.09792200000000001          
         C8        1.0000    0.24770   0.21780   0.30920   Biso      1.000     C          -0.262298           
         C9        1.0000    0.35210   0.05680   0.62000   Biso      1.000     C          -0.341517           
         C10       1.0000    0.75230   0.78220   0.69080   Biso      1.000     C          0.036785000000000005          
         C11       1.0000    0.88110   0.40520   0.70280   Biso      1.000     C          0.050910000000000004          
         C12       1.0000    0.77650   0.91140   0.32780   Biso      1.000     C          0.045107  
         C13       1.0000    0.94410   0.76750   0.03140   Biso      1.000     C          -0.23216599999999998          
         Cu1       1.0000    0.16819   0.39624   0.29210   Biso      1.000     Cu          0.6173420000000001  
         Cu2       1.0000    0.98950   0.85092   0.23073   Biso      1.000     Cu          0.516744  
         Cu3       1.0000    0.35954   0.96358   0.39001   Biso      1.000     Cu          0.5839479999999999  
         Cu4       1.0000    0.01050   0.14908   0.76927   Biso      1.000     Cu          0.578118  
         Cu5       1.0000    0.83181   0.60376   0.70790   Biso      1.000     Cu          0.507546  
         Cu6       1.0000    0.64046   0.03642   0.60999   Biso      1.000     Cu          0.55612   
         N1        1.0000    0.64790   0.94320   0.38000   Biso      1.000     N          -0.333656           
         N2        1.0000    0.72450   0.88370   0.66860   Biso      1.000     N          -0.320062           
         N3        1.0000    0.85580   0.27740   0.69020   Biso      1.000     N          -0.3228 