
##########################################################################
#               Crystallographic Information Format file
#               Produced by PyCifRW module
#
#  This is a CIF file.  CIF has been adopted by the International
#  Union of Crystallography as the standard for data archiving and
#  transmission.
#
#  For information on this file format, follow the CIF links at
#  http://www.iucr.org
##########################################################################

data_image0

_cell_length_a                          15.2904
_cell_length_b                          15.2904
_cell_length_c                          17.6676
_cell_angle_alpha                       115.641
_cell_angle_beta                        115.641
_cell_angle_gamma                       90.0001
_symmetry_space_group_name_H-M          'P 1'
_symmetry_int_tables_number             1
loop_
  _symmetry_equiv_pos_as_xyz
         'x, y, z' 
loop_
  _atom_site_label
  _atom_site_occupancy
  _atom_site_fract_x
  _atom_site_fract_y
  _atom_site_fract_z
  _atom_site_thermal_displace_type
  _atom_site_B_iso_or_equiv
  _atom_site_type_symbol
  _atom_site_charge
         C1        1.0000    0.77014   0.48248   0.81679   Biso      1.000     C          -0.096923           
         C2        1.0000    0.66719   0.03793   0.82143   Biso      1.000     C          -0.143362           
         C3        1.0000    0.57354   0.00997   0.74211   Biso      1.000     C          -0.104199           
         C4        1.0000    0.69248   0.25899   0.06953   Biso      1.000     C          0.037812  
         C5        1.0000    0.64608   0.27638   0.12642   Biso      1.000     C          -0.13655899999999999          
         C6        1.0000    0.66548   0.22977   0.18298   Biso      1.000     C          -0.09606  
         C7        1.0000    0.62323   0.57377   0.29477   Biso      1.000     C          0.11036800000000001           
         C8        1.0000    0.67251   0.62245   0.39482   Biso      1.000     C          -0.17086600000000002          
         C9        1.0000    0.37706   0.81055   0.06970   Biso      1.000     C          0.037908  
         C10       1.0000    0.70053   0.13402   0.90128   Biso      1.000     C          0.034457  
         C11       1.0000    0.48035   0.85005   0.12667   Biso      1.000     C          -0.138139           
         C12       1.0000    0.67150   0.72099   0.29476   Biso      1.000     C          0.11155899999999999           
         C13       1.0000    0.72228   0.77237   0.39482   Biso      1.000     C          -0.172591           
         C14       1.0000    0.79907   0.73208   0.09830   Biso      1.000     C          0.034694  
         C15       1.0000    0.83214   0.71529   0.17782   Biso      1.000     C          -0.14701  
         C16       1.0000    0.92584   0.76622   0.25722   Biso      1.000     C          -0.10248499999999999          
         C17       1.0000    0.29922   0.36625   0.09826   Biso      1.000     C          0.036088999999999996          
         C18       1.0000    0.34558   0.46262   0.17770   Biso      1.000     C          -0.14735  
         C19       1.0000    0.33138   0.49110   0.25716   Biso      1.000     C          -0.100258           
         C20       1.0000    0.51749   0.95320   0.18333   Biso      1.000     C          -0.09726  
         C21       1.0000    0.22360   0.22360   0.44719   Biso      1.000     C          0.10473800000000001           
         C22       1.0000    0.16896   0.73254   0.74230   Biso      1.000     C          -0.10363399999999999          
         C23       1.0000    0.20095   0.76746   0.90136   Biso      1.000     C          0.0356    
         C24       1.0000    0.18934   0.30730   0.93017   Biso      1.000     C          0.039022  
         C25       1.0000    0.14975   0.35357   0.87317   Biso      1.000     C          -0.13714500000000002          
         C26       1.0000    0.27955   0.37856   0.70511   Biso      1.000     C          0.11161199999999999           
         C27       1.0000    0.22828   0.32950   0.60506   Biso      1.000     C          -0.173031           
         C28       1.0000    0.74084   0.62287   0.93022   Biso      1.000     C          0.037497  
         C29       1.0000    0.72348   0.51958   0.87332   Biso      1.000     C          -0.134247           
         C30       1.0000    0.42559   0.32660   0.70511   Biso      1.000     C          0.113014  
         C31       1.0000    0.37680   0.27560   0.60506   Biso      1.000     C          -0.174046           
         C32       1.0000    0.15453   0.78380   0.82157   Biso      1.000     C          -0.145032           
         C33       1.0000    0.12280   0.24076   0.93050   Biso      1.000     C          0.037729  
         C34       1.0000    0.98201   0.26964   0.81704   Biso      1.000     C          -0.096326           
         C35       1.0000    0.82910   0.92636   0.70501   Biso      1.000     C          0.11036800000000001           
         C36       1.0000    0.77832   0.87768   0.60496   Biso      1.000     C          -0.1713   
         C37       1.0000    0.80764   0.68969   0.93045   Biso      1.000     C          0.039807999999999996          
         C38       1.0000    0.85419   0.65044   0.87366   Biso      1.000     C          -0.13964200000000002          
         C39       1.0000    0.83487   0.54730   0.81695   Biso      1.000     C          -0.093887           
         C40       1.0000    0.87596   0.77868   0.70501   Biso      1.000     C          0.11161700000000001           
         C41       1.0000    0.82666   0.72729   0.60496   Biso      1.000     C          -0.17239200000000002          
         C42       1.0000    0.01945   0.22331   0.87383   Biso      1.000     C          -0.136994           
         C43       1.0000    0.50932   0.07440   0.74235   Biso      1.000     C          -0.103804           
         C44       1.0000    0.27684   0.27685   0.55367   Biso      1.000     C          0.105378  
         C45       1.0000    0.72323   0.72324   0.44648   Biso      1.000     C          0.10425999999999999           
         C46       1.0000    0.39704   0.62340   0.00141   Biso      1.000     C          0.599622  
         C47       1.0000    0.23396   0.60416   0.04467   Biso      1.000     C          -0.132655           
         C48       1.0000    0.15949   0.59520   0.06814   Biso      1.000     C          -0.08578  
         C49       1.0000    0.67170   0.29921   0.99806   Biso      1.000     C          -0.066624           
         C50       1.0000    0.77663   0.34258   0.02158   Biso      1.000     C          0.032102  
         C51       1.0000    0.60438   0.37803   0.00141   Biso      1.000     C          0.602351  
         C52       1.0000    0.81098   0.44078   0.04541   Biso      1.000     C          -0.13359200000000002          
         C53       1.0000    0.90913   0.47341   0.06951   Biso      1.000     C          -0.084837           
         C54       1.0000    0.24482   0.67886   0.02133   Biso      1.000     C          0.031092  
         C55       1.0000    0.30104   0.32828   0.00175   Biso      1.000     C          -0.066961           
         C56       1.0000    0.37651   0.39559   0.99841   Biso      1.000     C          0.6003569999999999  
         C57       1.0000    0.39557   0.18918   0.95480   Biso      1.000     C          -0.134163           
         C58       1.0000    0.40446   0.09120   0.93118   Biso      1.000     C          -0.08526900000000001          
         C59       1.0000    0.70073   0.67351   0.00180   Biso      1.000     C          -0.06619900000000001          
         C60       1.0000    0.65740   0.75502   0.97847   Biso      1.000     C          0.032454000000000004          
         C61       1.0000    0.62192   0.60285   0.99846   Biso      1.000     C          0.601456  
         C62       1.0000    0.55927   0.76569   0.95490   Biso      1.000     C          -0.1349   
         C63       1.0000    0.52674   0.84001   0.93122   Biso      1.000     C          -0.085898           
         C64       1.0000    0.32106   0.22344   0.97844   Biso      1.000     C          0.030882  
         C65       1.0000    0.77665   0.77665   0.55330   Biso      1.000     C          0.104683  
         C66       1.0000    0.32639   0.69888   0.99807   Biso      1.000     C          -0.065232           
         C67       1.0000    0.10412   0.73439   0.04478   Biso      1.000     C          -0.140549           
         C68       1.0000    0.82850   0.80129   0.00229   Biso      1.000     C          -0.06587799999999999          
         C69       1.0000    0.72358   0.82119   0.97865   Biso      1.000     C          0.032482  
         C70       1.0000    0.89613   0.87708   0.99953   Biso      1.000     C          0.603827  
         C71       1.0000    0.68941   0.89572   0.95500   Biso      1.000     C          -0.13327999999999998          
         C72       1.0000    0.59140   0.90461   0.93124   Biso      1.000     C          -0.085382           
         C73       1.0000    0.17384   0.20103   0.00235   Biso      1.000     C          -0.064575           
         C74       1.0000    0.25510   0.15748   0.97869   Biso      1.000     C          0.033295  
         C75       1.0000    0.10344   0.12247   0.99958   Biso      1.000     C          0.605121  
         C76       1.0000    0.09500   0.65996   0.06826   Biso      1.000     C          -0.085094           
         C77       1.0000    0.26568   0.05933   0.95513   Biso      1.000     C          -0.133777           
         C78       1.0000    0.79896   0.17141   0.99760   Biso      1.000     C          -0.066621           
         C79       1.0000    0.84262   0.27639   0.02146   Biso      1.000     C          0.030027999999999996          
         C80       1.0000    0.87744   0.10374   0.00032   Biso      1.000     C          0.6078479999999999  
         C81       1.0000    0.94094   0.31066   0.04552   Biso      1.000     C          -0.139921           
         C82       1.0000    0.97372   0.40877   0.06963   Biso      1.000     C          -0.086391           
         C83       1.0000    0.19868   0.82622   0.99761   Biso      1.000     C          -0.067218           
         C84       1.0000    0.17870   0.74493   0.02120   Biso      1.000     C          0.029761000000000003          
         C85       1.0000    0.12291   0.89660   0.00033   Biso      1.000     C          0.606966  
         C86       1.0000    0.33989   0.02666   0.93132   Biso      1.000     C          -0.08539  
         C87       1.0000    0.53763   0.16792   0.82193   Biso      1.000     C          -0.14443  
         C88       1.0000    0.04656   0.33417   0.81672   Biso      1.000     C          -0.094059           
         C89       1.0000    0.23342   0.66835   0.74254   Biso      1.000     C          -0.10353  
         C90       1.0000    0.86598   0.79899   0.09854   Biso      1.000     C          0.037768  
         C91       1.0000    0.96216   0.84524   0.17824   Biso      1.000     C          -0.13773  
         C92       1.0000    0.99031   0.83060   0.25741   Biso      1.000     C          -0.100506           
         C93       1.0000    0.18383   0.07924   0.29575   Biso      1.000     C          0.11138599999999999           
         C94       1.0000    0.23264   0.29958   0.09858   Biso      1.000     C          0.037168  
         C95       1.0000    0.21631   0.33301   0.17837   Biso      1.000     C          -0.138119           
         C96       1.0000    0.26729   0.42686   0.25749   Biso      1.000     C          -0.104157           
         C97       1.0000    0.11189   0.21649   0.29574   Biso      1.000     C          0.10988699999999998           
         C98       1.0000    0.16096   0.26770   0.39580   Biso      1.000     C          -0.173001           
         C99       1.0000    0.23483   0.12811   0.39580   Biso      1.000     C          -0.173792           
         C100      1.0000    0.63386   0.20093   0.90152   Biso      1.000     C          0.035459  
         C101      1.0000    0.77669   0.14577   0.12625   Biso      1.000     C          -0.136888           
         C102      1.0000    0.73021   0.16510   0.18291   Biso      1.000     C          -0.093817           
         C103      1.0000    0.31027   0.87716   0.06951   Biso      1.000     C          0.033708  
         C104      1.0000    0.34956   0.98048   0.12651   Biso      1.000     C          -0.137536           
         C105      1.0000    0.45270   0.01782   0.18328   Biso      1.000     C          -0.094217           
         C106      1.0000    0.26786   0.70079   0.90160   Biso      1.000     C          0.036075  
         C107      1.0000    0.28458   0.65429   0.82205   Biso      1.000     C          -0.145086           
         C108      1.0000    0.75908   0.19219   0.06934   Biso      1.000     C          0.032831  
         H1        1.0000    0.24190   0.41827   0.74469   Biso      1.000     H          0.114075  
         H2        1.0000    0.15097   0.33144   0.56825   Biso      1.000     H          0.125162  
         H3        1.0000    0.67655   0.46723   0.87375   Biso      1.000     H          0.10423900000000001           
         H4        1.0000    0.75717   0.40276   0.77354   Biso      1.000     H          0.08904400000000001           
         H5        1.0000    0.50282   0.32648   0.74469   Biso      1.000     H          0.11316   
         H6        1.0000    0.41730   0.23685   0.56825   Biso      1.000     H          0.12578699999999998           
         H7        1.0000    0.73970   0.91853   0.56855   Biso      1.000     H          0.123636  
         H8        1.0000    0.90225   0.25660   0.77397   Biso      1.000     H          0.088894  
         H9        1.0000    0.83041   0.00407   0.74461   Biso      1.000     H          0.11385999999999999           
         H10       1.0000    0.90702   0.69798   0.87432   Biso      1.000     H          0.105599  
         H11       1.0000    0.87148   0.51724   0.77380   Biso      1.000     H          0.08819199999999999           
         H12       1.0000    0.01624   0.37055   0.77339   Biso      1.000     H          0.088396  
         H13       1.0000    0.96731   0.17654   0.87463   Biso      1.000     H          0.10466099999999999           
         H14       1.0000    0.19709   0.40624   0.87346   Biso      1.000     H          0.10538299999999999           
         H15       1.0000    0.06438   0.25101   0.25644   Biso      1.000     H          0.118154  
         H16       1.0000    0.48111   0.20983   0.82001   Biso      1.000     H          0.11141300000000001           
         H17       1.0000    0.01872   0.88929   0.18045   Biso      1.000     H          0.10241199999999999           
         H18       1.0000    0.06421   0.86689   0.31822   Biso      1.000     H          0.086061  
         H19       1.0000    0.19205   0.00542   0.25645   Biso      1.000     H          0.117897  
         H20       1.0000    0.28148   0.09097   0.43263   Biso      1.000     H          0.125197  
         H21       1.0000    0.16211   0.29112   0.18070   Biso      1.000     H          0.103547  
         H22       1.0000    0.25430   0.45137   0.31835   Biso      1.000     H          0.087141  
         H23       1.0000    0.43546   0.05026   0.68158   Biso      1.000     H          0.088655  
         H24       1.0000    0.91425   0.74057   0.74461   Biso      1.000     H          0.113673  
         H25       1.0000    0.82375   0.09310   0.12580   Biso      1.000     H          0.112408  
         H26       1.0000    0.74332   0.12856   0.22613   Biso      1.000     H          0.09187000000000001           
         H27       1.0000    0.30207   0.03271   0.12604   Biso      1.000     H          0.112627  
         H28       1.0000    0.48281   0.09756   0.22656   Biso      1.000     H          0.092295  
         H29       1.0000    0.33916   0.61042   0.82014   Biso      1.000     H          0.1112    
         H30       1.0000    0.24658   0.63178   0.68179   Biso      1.000     H          0.08879   
         H31       1.0000    0.15114   0.34166   0.43261   Biso      1.000     H          0.125123  
         H32       1.0000    0.82886   0.65004   0.56855   Biso      1.000     H          0.124051  
         H33       1.0000    0.59331   0.32333   0.12597   Biso      1.000     H          0.104398  
         H34       1.0000    0.13248   0.74541   0.68137   Biso      1.000     H          0.090877  
         H35       1.0000    0.45070   0.84648   0.91179   Biso      1.000     H          0.095706  
         H36       1.0000    0.50735   0.71678   0.95365   Biso      1.000     H          0.105503  
         H37       1.0000    0.46104   0.06528   0.91171   Biso      1.000     H          0.095054  
         H38       1.0000    0.44618   0.23681   0.95345   Biso      1.000     H          0.105377  
         H39       1.0000    0.93515   0.54953   0.08922   Biso      1.000     H          0.096228  
         H40       1.0000    0.76330   0.49270   0.04658   Biso      1.000     H          0.106172  
         H41       1.0000    0.15277   0.53838   0.08726   Biso      1.000     H          0.09631   
         H42       1.0000    0.28280   0.55341   0.04583   Biso      1.000     H          0.106396  
         H43       1.0000    0.11043   0.83816   0.81929   Biso      1.000     H          0.11264400000000001           
         H44       1.0000    0.05360   0.78345   0.04615   Biso      1.000     H          0.104985  
         H45       1.0000    0.04992   0.43470   0.08946   Biso      1.000     H          0.095927  
         H46       1.0000    0.99283   0.26297   0.04690   Biso      1.000     H          0.10475899999999999           
         H47       1.0000    0.34632   0.95061   0.91194   Biso      1.000     H          0.095345  
         H48       1.0000    0.21678   0.00747   0.95396   Biso      1.000     H          0.105762  
         H49       1.0000    0.03824   0.65346   0.08751   Biso      1.000     H          0.095828  
         H50       1.0000    0.73711   0.94634   0.95373   Biso      1.000     H          0.10568699999999999           
         H51       1.0000    0.56558   0.96124   0.91180   Biso      1.000     H          0.095182  
         H52       1.0000    0.54913   0.93621   0.68114   Biso      1.000     H          0.090985  
         H53       1.0000    0.62900   0.24276   0.22622   Biso      1.000     H          0.08948099999999999           
         H54       1.0000    0.58439   0.49624   0.25516   Biso      1.000     H          0.11479   
         H55       1.0000    0.66974   0.58181   0.43124   Biso      1.000     H          0.124429  
         H56       1.0000    0.53267   0.80266   0.12620   Biso      1.000     H          0.105476  
         H57       1.0000    0.70897   0.98127   0.81914   Biso      1.000     H          0.11214600000000001           
         H58       1.0000    0.67073   0.75891   0.25515   Biso      1.000     H          0.11431600000000001           
         H59       1.0000    0.76146   0.84943   0.43122   Biso      1.000     H          0.124831  
         H60       1.0000    0.79013   0.66081   0.17978   Biso      1.000     H          0.111384  
         H61       1.0000    0.95008   0.75294   0.31789   Biso      1.000     H          0.089395  
         H62       1.0000    0.38940   0.51910   0.17956   Biso      1.000     H          0.110748  
         H63       1.0000    0.36776   0.56509   0.31778   Biso      1.000     H          0.089323  
         H64       1.0000    0.59721   0.98345   0.22664   Biso      1.000     H          0.090509  
         N1        1.0000    0.62346   0.62347   0.24695   Biso      1.000     N          -0.217654           
         N2        1.0000    0.12387   0.12388   0.24777   Biso      1.000     N          -0.217221           
         N3        1.0000    0.37648   0.37649   0.75292   Biso      1.000     N          -0.21736  
         N4        1.0000    0.87645   0.87643   0.75284   Biso      1.000     N          -0.216352           
         O1        1.0000    0.55005   0.53707   0.91863   Biso      1.000     O          -0.572461           
         O2        1.0000    0.03761   0.05044   0.91984   Biso      1.000     O          -0.576633           
         O3        1.0000    0.88224   0.86937   0.91980   Biso      1.000     O          -0.575996           
         O4        1.0000    0.61843   0.44991   0.08124   Biso      1.000     O          -0.572615           
         O5        1.0000    0.87364   0.03799   0.92303   Biso      1.000     O          -0.570114           
         O6        1.0000    0.36855   0.38157   0.91859   Biso      1.000     O          -0.571767           
         O7        1.0000    0.04943   0.88504   0.92302   Biso      1.000     O          -0.5700529999999999           
         O8        1.0000    0.46280   0.63132   0.08123   Biso      1.000     O          -0.57157  
         O9        1.0000    0.53842   0.37438   0.92425   Biso      1.000     O          -0.569078           
         O10       1.0000    0.45006   0.46150   0.07560   Biso      1.000     O          -0.568315           
         O11       1.0000    0.13063   0.96254   0.07992   Biso      1.000     O          -0.5768989999999999           
         O12       1.0000    0.94928   0.11738   0.07993   Biso      1.000     O          -0.577908           
         O13       1.0000    0.11487   0.12646   0.07698   Biso      1.000     O          -0.567992           
         O14       1.0000    0.96208   0.95051   0.07695   Biso      1.000     O          -0.567238           
         O15       1.0000    0.62556   0.61411   0.07563   Biso      1.000     O          -0.5686899999999999           
         O16       1.0000    0.38584   0.54990   0.92423   Biso      1.000     O          -0.567492           
         Zn1       1.0000    0.55569   0.55569   0.11140   Biso      1.000     Zn          0.963734  
         Zn2       1.0000    0.94423   0.94421   0.88841   Biso      1.000     Zn          0.966404  
         Zn3       1.0000    0.44423   0.44425   0.88846   Biso      1.000     Zn          0.964283  
         Zn4       1.0000    0.05586   0.05587   0.11174   Biso      1.000     Zn          0.965883 