
##########################################################################
#               Crystallographic Information Format file
#               Produced by PyCifRW module
#
#  This is a CIF file.  CIF has been adopted by the International
#  Union of Crystallography as the standard for data archiving and
#  transmission.
#
#  For information on this file format, follow the CIF links at
#  http://www.iucr.org
##########################################################################

data_image0

_cell_length_a                          12.366
_cell_length_b                          13.439
_cell_length_c                          26.969
_cell_angle_alpha                       90
_cell_angle_beta                        95.463
_cell_angle_gamma                       90
_symmetry_space_group_name_H-M          'P 1'
_symmetry_int_tables_number             1
loop_
  _symmetry_equiv_pos_as_xyz
         'x, y, z' 
loop_
  _atom_site_label
  _atom_site_occupancy
  _atom_site_fract_x
  _atom_site_fract_y
  _atom_site_fract_z
  _atom_site_thermal_displace_type
  _atom_site_B_iso_or_equiv
  _atom_site_type_symbol
  _atom_site_charge
         C1        1.0000    0.86030   0.11570   0.52610   Biso      1.000     C          -0.100787           
         C2        1.0000    0.88110   0.07340   0.21880   Biso      1.000     C          -0.032789           
         C3        1.0000    0.92530   0.04530   0.17510   Biso      1.000     C          -0.114277           
         C4        1.0000    0.43850   0.82310   0.70370   Biso      1.000     C          0.199827  
         C5        1.0000    0.91560   0.01910   0.26590   Biso      1.000     C          0.6363850000000001  
         C6        1.0000    0.69370   0.28150   0.17070   Biso      1.000     C          0.610464  
         C7        1.0000    0.58790   0.66120   0.88520   Biso      1.000     C          0.602564  
         C8        1.0000    0.68860   0.56680   0.06840   Biso      1.000     C          0.584162  
         C9        1.0000    0.93850   0.67690   0.20370   Biso      1.000     C          0.199827  
         C10       1.0000    0.18860   0.93320   0.56840   Biso      1.000     C          0.584162  
         C11       1.0000    0.99920   0.73390   0.13540   Biso      1.000     C          -0.020886000000000002         
         C12       1.0000    0.04640   0.78460   0.17510   Biso      1.000     C          -0.078499           
         C13       1.0000    0.77920   0.77690   0.98600   Biso      1.000     C          -0.012705           
         C14       1.0000    0.71590   0.76410   0.94060   Biso      1.000     C          -0.131825           
         C15       1.0000    0.72080   0.27690   0.51400   Biso      1.000     C          -0.012705           
         C16       1.0000    0.72770   0.20950   0.47600   Biso      1.000     C          -0.131575           
         C17       1.0000    0.54640   0.71540   0.67510   Biso      1.000     C          -0.078513           
         C18       1.0000    0.95360   0.21540   0.82490   Biso      1.000     C          -0.078513           
         C19       1.0000    0.79900   0.13130   0.48090   Biso      1.000     C          -0.018296           
         C20       1.0000    0.49920   0.76610   0.63540   Biso      1.000     C          -0.020871999999999998         
         C21       1.0000    0.00080   0.26610   0.86460   Biso      1.000     C          -0.020871999999999998         
         C22       1.0000    0.80520   0.15070   0.21660   Biso      1.000     C          -0.11639200000000001          
         C23       1.0000    0.27230   0.79050   0.52400   Biso      1.000     C          -0.131575           
         C24       1.0000    0.85670   0.86250   0.99260   Biso      1.000     C          0.633314  
         C25       1.0000    0.42530   0.45470   0.67510   Biso      1.000     C          -0.114277           
         C26       1.0000    0.38110   0.42660   0.71880   Biso      1.000     C          -0.03279  
         C27       1.0000    0.93940   0.05790   0.08360   Biso      1.000     C          0.639841  
         C28       1.0000    0.30520   0.34930   0.71660   Biso      1.000     C          -0.11639200000000001          
         C29       1.0000    0.27650   0.30040   0.67270   Biso      1.000     C          -0.017012           
         C30       1.0000    0.89420   0.09270   0.13000   Biso      1.000     C          -0.027894           
         C31       1.0000    0.32000   0.32880   0.62940   Biso      1.000     C          -0.100225           
         C32       1.0000    0.27920   0.72310   0.48600   Biso      1.000     C          -0.012705           
         C33       1.0000    0.39420   0.40730   0.63000   Biso      1.000     C          -0.027895           
         C34       1.0000    0.35670   0.63750   0.49260   Biso      1.000     C          0.633314  
         C35       1.0000    0.82000   0.17120   0.12940   Biso      1.000     C          -0.100227           
         C36       1.0000    0.21590   0.73590   0.44060   Biso      1.000     C          -0.131825           
         C37       1.0000    0.14820   0.81990   0.43410   Biso      1.000     C          -0.021122           
         C38       1.0000    0.08790   0.83880   0.38520   Biso      1.000     C          0.602565  
         C39       1.0000    0.13970   0.88430   0.47390   Biso      1.000     C          -0.100787           
         C40       1.0000    0.20100   0.86870   0.51910   Biso      1.000     C          -0.018295           
         C41       1.0000    0.77650   0.19960   0.17270   Biso      1.000     C          -0.017011000000000002         
         C42       1.0000    0.43940   0.44210   0.58360   Biso      1.000     C          0.639841  
         C43       1.0000    0.41560   0.48090   0.76590   Biso      1.000     C          0.6363850000000001  
         C44       1.0000    0.19370   0.21850   0.67070   Biso      1.000     C          0.610464  
         C45       1.0000    0.31140   0.43320   0.93160   Biso      1.000     C          0.584162  
         C46       1.0000    0.22770   0.29050   0.97600   Biso      1.000     C          -0.131575           
         C47       1.0000    0.22080   0.22310   0.01400   Biso      1.000     C          -0.012705           
         C48       1.0000    0.60580   0.59270   0.37000   Biso      1.000     C          -0.027894           
         C49       1.0000    0.68000   0.67120   0.37060   Biso      1.000     C          -0.100226           
         C50       1.0000    0.72350   0.69960   0.32730   Biso      1.000     C          -0.017016           
         C51       1.0000    0.69480   0.65070   0.28340   Biso      1.000     C          -0.11638699999999999          
         C52       1.0000    0.63970   0.61570   0.97390   Biso      1.000     C          -0.100787           
         C53       1.0000    0.61890   0.57340   0.28120   Biso      1.000     C          -0.03279  
         C54       1.0000    0.57470   0.54530   0.32490   Biso      1.000     C          -0.11427799999999999          
         C55       1.0000    0.70100   0.63130   0.01910   Biso      1.000     C          -0.018296           
         C56       1.0000    0.58440   0.51910   0.23410   Biso      1.000     C          0.6363850000000001  
         C57       1.0000    0.80630   0.78150   0.32930   Biso      1.000     C          0.610464  
         C58       1.0000    0.91210   0.16120   0.61480   Biso      1.000     C          0.602565  
         C59       1.0000    0.81140   0.06680   0.43160   Biso      1.000     C          0.584163  
         C60       1.0000    0.56150   0.17690   0.29630   Biso      1.000     C          0.199827  
         C61       1.0000    0.50080   0.23390   0.36460   Biso      1.000     C          -0.020886000000000002         
         C62       1.0000    0.77230   0.70950   0.02400   Biso      1.000     C          -0.131575           
         C63       1.0000    0.56060   0.55790   0.41640   Biso      1.000     C          0.639841  
         C64       1.0000    0.06150   0.32310   0.79630   Biso      1.000     C          0.199827  
         C65       1.0000    0.29900   0.36870   0.98090   Biso      1.000     C          -0.018296           
         C66       1.0000    0.64330   0.36250   0.50740   Biso      1.000     C          0.633314  
         C67       1.0000    0.41210   0.33880   0.11480   Biso      1.000     C          0.602565  
         C68       1.0000    0.30630   0.71850   0.82930   Biso      1.000     C          0.610464  
         C69       1.0000    0.08440   0.98090   0.73410   Biso      1.000     C          0.6363850000000001  
         C70       1.0000    0.45360   0.28460   0.32490   Biso      1.000     C          -0.078499           
         C71       1.0000    0.07470   0.95470   0.82490   Biso      1.000     C          -0.114277           
         C72       1.0000    0.11890   0.92660   0.78120   Biso      1.000     C          -0.03279  
         C73       1.0000    0.85180   0.18010   0.56590   Biso      1.000     C          -0.021121           
         C74       1.0000    0.19480   0.84930   0.78340   Biso      1.000     C          -0.11639200000000001          
         C75       1.0000    0.36030   0.38430   0.02610   Biso      1.000     C          -0.100787           
         C76       1.0000    0.22350   0.80040   0.82730   Biso      1.000     C          -0.017012           
         C77       1.0000    0.18000   0.82880   0.87060   Biso      1.000     C          -0.100225           
         C78       1.0000    0.10580   0.90730   0.87000   Biso      1.000     C          -0.027895           
         C79       1.0000    0.06060   0.94210   0.91640   Biso      1.000     C          0.639841  
         C80       1.0000    0.14330   0.13750   0.00740   Biso      1.000     C          0.633314  
         C81       1.0000    0.64820   0.68010   0.93410   Biso      1.000     C          -0.021121           
         C82       1.0000    0.28410   0.23590   0.05940   Biso      1.000     C          -0.131825           
         C83       1.0000    0.35180   0.31990   0.06590   Biso      1.000     C          -0.021121           
         C84       1.0000    0.78410   0.26410   0.55940   Biso      1.000     C          -0.131825           
         H1        1.0000    0.71860   0.81040   0.91510   Biso      1.000     H          0.128667  
         H2        1.0000    0.59260   0.56170   0.97030   Biso      1.000     H          0.133676  
         H3        1.0000    0.81690   0.71720   0.05350   Biso      1.000     H          0.11344000000000001           
         H4        1.0000    0.59640   0.66390   0.67380   Biso      1.000     H          0.127335  
         H5        1.0000    0.09640   0.83610   0.17380   Biso      1.000     H          0.127334  
         H6        1.0000    0.77380   0.16920   0.24530   Biso      1.000     H          0.118907  
         H7        1.0000    0.97620   0.99420   0.17610   Biso      1.000     H          0.115854  
         H8        1.0000    0.89900   0.63920   0.22460   Biso      1.000     H          0.10486500000000001           
         H9        1.0000    0.01040   0.74320   0.10210   Biso      1.000     H          0.127813  
         H10       1.0000    0.60780   0.12440   0.36310   Biso      1.000     H          0.31046399999999996           
         H11       1.0000    0.68310   0.21720   0.44650   Biso      1.000     H          0.11344000000000001           
         H12       1.0000    0.90740   0.06170   0.52970   Biso      1.000     H          0.133676  
         H13       1.0000    0.78140   0.31040   0.58490   Biso      1.000     H          0.128667  
         H14       1.0000    0.70030   0.70460   0.40020   Biso      1.000     H          0.132339  
         H15       1.0000    0.72620   0.66920   0.25470   Biso      1.000     H          0.118906  
         H16       1.0000    0.52380   0.49420   0.32390   Biso      1.000     H          0.115854  
         H17       1.0000    0.60100   0.13920   0.27540   Biso      1.000     H          0.10486500000000001           
         H18       1.0000    0.48960   0.24320   0.39790   Biso      1.000     H          0.127814  
         H19       1.0000    0.79970   0.20460   0.09980   Biso      1.000     H          0.132339  
         H20       1.0000    0.89220   0.62440   0.13690   Biso      1.000     H          0.31046399999999996           
         H21       1.0000    0.40360   0.33610   0.32620   Biso      1.000     H          0.127334  
         H22       1.0000    0.31690   0.78280   0.55350   Biso      1.000     H          0.11344000000000001           
         H23       1.0000    0.18310   0.28280   0.94650   Biso      1.000     H          0.11344000000000001           
         H24       1.0000    0.10780   0.37560   0.86310   Biso      1.000     H          0.310463  
         H25       1.0000    0.39220   0.87560   0.63690   Biso      1.000     H          0.310463  
         H26       1.0000    0.20030   0.79540   0.90020   Biso      1.000     H          0.132339  
         H27       1.0000    0.09260   0.93830   0.47030   Biso      1.000     H          0.133676  
         H28       1.0000    0.21860   0.68960   0.41510   Biso      1.000     H          0.128667  
         H29       1.0000    0.29970   0.29540   0.59980   Biso      1.000     H          0.132339  
         H30       1.0000    0.27380   0.33080   0.74530   Biso      1.000     H          0.118907  
         H31       1.0000    0.47620   0.50580   0.67610   Biso      1.000     H          0.115854  
         H32       1.0000    0.39900   0.86080   0.72460   Biso      1.000     H          0.10486500000000001           
         H33       1.0000    0.51040   0.75680   0.60210   Biso      1.000     H          0.12781199999999998           
         H34       1.0000    0.40740   0.43830   0.02970   Biso      1.000     H          0.133676  
         H35       1.0000    0.22620   0.83080   0.75470   Biso      1.000     H          0.118907  
         H36       1.0000    0.28140   0.18960   0.08490   Biso      1.000     H          0.128667  
         H37       1.0000    0.10100   0.36080   0.77540   Biso      1.000     H          0.10486500000000001           
         H38       1.0000    0.98960   0.25680   0.89790   Biso      1.000     H          0.12781199999999998           
         H39       1.0000    0.90360   0.16390   0.82620   Biso      1.000     H          0.127335  
         H40       1.0000    0.02380   0.00580   0.82390   Biso      1.000     H          0.115854  
         N1        1.0000    0.06780   0.33330   0.84590   Biso      1.000     N          -0.196824           
         N2        1.0000    0.50700   0.75370   0.71890   Biso      1.000     N          -0.30701799999999996          
         N3        1.0000    0.43220   0.83330   0.65410   Biso      1.000     N          -0.196823           
         N4        1.0000    0.99300   0.25370   0.78110   Biso      1.000     N          -0.30701799999999996          
         N5        1.0000    0.00700   0.74630   0.21890   Biso      1.000     N          -0.30701999999999996          
         N6        1.0000    0.93220   0.66670   0.15410   Biso      1.000     N          -0.196822           
         N7        1.0000    0.49300   0.24630   0.28110   Biso      1.000     N          -0.30701999999999996          
         N8        1.0000    0.56780   0.16670   0.34590   Biso      1.000     N          -0.196822           
         O1        1.0000    0.73290   0.06290   0.39940   Biso      1.000     O          -0.597094           
         O2        1.0000    0.89630   0.02350   0.43230   Biso      1.000     O          -0.501622           
         O3        1.0000    0.95390   0.07340   0.62110   Biso      1.000     O          -0.592262           
         O4        1.0000    0.55750   0.34710   0.48020   Biso      1.000     O          -0.583449           
         O5        1.0000    0.48680   0.49390   0.41190   Biso      1.000     O          -0.581194           
         O6        1.0000    0.58170   0.72700   0.85190   Biso      1.000     O          -0.534728           
         O7        1.0000    0.05750   0.15290   0.98020   Biso      1.000     O          -0.58345  
         O8        1.0000    0.98680   0.00610   0.91190   Biso      1.000     O          -0.581195           
         O9        1.0000    0.23290   0.43710   0.89940   Biso      1.000     O          -0.597094           
         O10       1.0000    0.39630   0.47650   0.93230   Biso      1.000     O          -0.501622           
         O11       1.0000    0.45390   0.42660   0.12110   Biso      1.000     O          -0.592262           
         O12       1.0000    0.41830   0.27300   0.14810   Biso      1.000     O          -0.534728           
         O13       1.0000    0.31090   0.66190   0.86690   Biso      1.000     O          -0.547499           
         O14       1.0000    0.36330   0.70980   0.79380   Biso      1.000     O          -0.5936560000000001           
         O15       1.0000    0.17430   0.05680   0.02870   Biso      1.000     O          -0.575385           
         O16       1.0000    0.10010   0.90520   0.95670   Biso      1.000     O          -0.587395           
         O17       1.0000    0.00740   0.04130   0.73570   Biso      1.000     O          -0.588752           
         O18       1.0000    0.13350   0.96310   0.69680   Biso      1.000     O          -0.5406529999999999           
         O19       1.0000    0.91830   0.22700   0.64810   Biso      1.000     O          -0.534728           
         O20       1.0000    0.81090   0.83810   0.36690   Biso      1.000     O          -0.547499           
         O21       1.0000    0.50740   0.45870   0.23570   Biso      1.000     O          -0.588753           
         O22       1.0000    0.67430   0.44320   0.52870   Biso      1.000     O          -0.575385           
         O23       1.0000    0.54610   0.57340   0.87890   Biso      1.000     O          -0.592262           
         O24       1.0000    0.60370   0.52350   0.06770   Biso      1.000     O          -0.501622           
         O25       1.0000    0.76710   0.56290   0.10060   Biso      1.000     O          -0.597094           
         O26       1.0000    0.01320   0.99390   0.08810   Biso      1.000     O          -0.581194           
         O27       1.0000    0.94250   0.84710   0.01980   Biso      1.000     O          -0.583449           
         O28       1.0000    0.63670   0.29020   0.20620   Biso      1.000     O          -0.5936560000000001           
         O29       1.0000    0.82570   0.94320   0.97130   Biso      1.000     O          -0.575385           
         O30       1.0000    0.89990   0.09480   0.04330   Biso      1.000     O          -0.587395           
         O31       1.0000    0.99260   0.95870   0.26430   Biso      1.000     O          -0.588752           
         O32       1.0000    0.86650   0.03690   0.30320   Biso      1.000     O          -0.5406529999999999           
         O33       1.0000    0.44250   0.65290   0.51980   Biso      1.000     O          -0.583449           
         O34       1.0000    0.51320   0.50610   0.58810   Biso      1.000     O          -0.581194           
         O35       1.0000    0.86330   0.79020   0.29380   Biso      1.000     O          -0.5936560000000001           
         O36       1.0000    0.10370   0.97650   0.56770   Biso      1.000     O          -0.501622           
         O37       1.0000    0.04610   0.92660   0.37890   Biso      1.000     O          -0.592262           
         O38       1.0000    0.26710   0.93710   0.60060   Biso      1.000     O          -0.597094           
         O39       1.0000    0.18910   0.16190   0.63310   Biso      1.000     O          -0.547499           
         O40       1.0000    0.13670   0.20980   0.70620   Biso      1.000     O          -0.5936560000000001           
         O41       1.0000    0.32570   0.55680   0.47130   Biso      1.000     O          -0.575385           
         O42       1.0000    0.39990   0.40520   0.54330   Biso      1.000     O          -0.587395           
         O43       1.0000    0.49260   0.54130   0.76430   Biso      1.000     O          -0.588752           
         O44       1.0000    0.60010   0.59480   0.45670   Biso      1.000     O          -0.587395           
         O45       1.0000    0.68910   0.33810   0.13310   Biso      1.000     O          -0.547499           
         O46       1.0000    0.63350   0.53690   0.19680   Biso      1.000     O          -0.5406529999999999           
         O47       1.0000    0.08170   0.77300   0.35190   Biso      1.000     O          -0.534728           
         O48       1.0000    0.36650   0.46310   0.80320   Biso      1.000     O          -0.5406529999999999           
         Zn1       1.0000    0.10874   0.03650   0.63385   Biso      1.000     Zn          0.948958  
         Zn2       1.0000    0.97224   0.18017   0.71611   Biso      1.000     Zn          0.9277110000000001  
         Zn3       1.0000    0.47224   0.31983   0.21611   Biso      1.000     Zn          0.9277110000000001  
         Zn4       1.0000    0.52776   0.68017   0.78389   Biso      1.000     Zn          0.9277110000000001  
         Zn5       1.0000    0.57929   0.56726   0.53004   Biso      1.000     Zn          1.055228  
         Zn6       1.0000    0.39126   0.53650   0.86615   Biso      1.000     Zn          0.948958  
         Zn7       1.0000    0.42071   0.43274   0.46996   Biso      1.000     Zn          1.0552290000000002  
         Zn8       1.0000    0.02776   0.81983   0.28389   Biso      1.000     Zn          0.9277110000000001  
         Zn9       1.0000    0.89126   0.96350   0.36615   Biso      1.000     Zn          0.948958  
         Zn10      1.0000    0.92071   0.06726   0.96996   Biso      1.000     Zn          1.0552290000000002  
         Zn11      1.0000    0.60874   0.46350   0.13385   Biso      1.000     Zn          0.948958  
         Zn12      1.0000    0.07929   0.93274   0.03004   Biso      1.000     Zn          1.055228 