
##########################################################################
#               Crystallographic Information Format file
#               Produced by PyCifRW module
#
#  This is a CIF file.  CIF has been adopted by the International
#  Union of Crystallography as the standard for data archiving and
#  transmission.
#
#  For information on this file format, follow the CIF links at
#  http://www.iucr.org
##########################################################################

data_image0

_cell_length_a                          8.6429
_cell_length_b                          8.8848
_cell_length_c                          15.4504
_cell_angle_alpha                       90
_cell_angle_beta                        90
_cell_angle_gamma                       90
_symmetry_space_group_name_H-M          'P 1'
_symmetry_int_tables_number             1
loop_
  _symmetry_equiv_pos_as_xyz
         'x, y, z' 
loop_
  _atom_site_label
  _atom_site_occupancy
  _atom_site_fract_x
  _atom_site_fract_y
  _atom_site_fract_z
  _atom_site_thermal_displace_type
  _atom_site_B_iso_or_equiv
  _atom_site_type_symbol
  _atom_site_charge
         C1        1.0000    0.16480   0.95440   0.23380   Biso      1.000     C          0.02079   
         C2        1.0000    0.87920   0.62730   0.71070   Biso      1.000     C          0.160589  
         C3        1.0000    0.78170   0.48980   0.81690   Biso      1.000     C          0.069837  
         C4        1.0000    0.78180   0.40520   0.89750   Biso      1.000     C          0.22546799999999997           
         C5        1.0000    0.66480   0.54560   0.76620   Biso      1.000     C          0.020794999999999998          
         C6        1.0000    0.49840   0.53810   0.76750   Biso      1.000     C          0.26706199999999997           
         C7        1.0000    0.28170   0.01020   0.18310   Biso      1.000     C          0.06984299999999999           
         C8        1.0000    0.28180   0.09480   0.10250   Biso      1.000     C          0.225467  
         C9        1.0000    0.62080   0.37270   0.21070   Biso      1.000     C          0.160588  
         C10       1.0000    0.71830   0.51020   0.31690   Biso      1.000     C          0.069837  
         C11       1.0000    0.71820   0.59480   0.39750   Biso      1.000     C          0.225467  
         C12       1.0000    0.83520   0.45440   0.26620   Biso      1.000     C          0.020794999999999998          
         C13       1.0000    0.50160   0.03810   0.73250   Biso      1.000     C          0.26706399999999997           
         C14       1.0000    0.33520   0.04560   0.73380   Biso      1.000     C          0.02079   
         C15       1.0000    0.21820   0.90520   0.60250   Biso      1.000     C          0.22546799999999997           
         C16       1.0000    0.21830   0.98980   0.68310   Biso      1.000     C          0.069842  
         C17       1.0000    0.12080   0.12730   0.78930   Biso      1.000     C          0.160588  
         C18       1.0000    0.00160   0.46190   0.26750   Biso      1.000     C          0.26706399999999997           
         C19       1.0000    0.37920   0.87270   0.28930   Biso      1.000     C          0.160588  
         C20       1.0000    0.99840   0.96190   0.23250   Biso      1.000     C          0.267065  
         H1        1.0000    0.04017   0.52095   0.79605   Biso      1.000     H          0.253729  
         H2        1.0000    0.54017   0.97905   0.20395   Biso      1.000     H          0.253729  
         H3        1.0000    0.94400   0.64600   0.66700   Biso      1.000     H          0.10319400000000001           
         H4        1.0000    0.55600   0.35400   0.16700   Biso      1.000     H          0.10319300000000001           
         H5        1.0000    0.95983   0.02095   0.70395   Biso      1.000     H          0.25373   
         H6        1.0000    0.44400   0.85400   0.33300   Biso      1.000     H          0.10319400000000001           
         H7        1.0000    0.45983   0.47905   0.29605   Biso      1.000     H          0.253729  
         H8        1.0000    0.05600   0.14600   0.83300   Biso      1.000     H          0.10319300000000001           
         N1        1.0000    0.26930   0.59960   0.72660   Biso      1.000     N          -0.06986  
         N2        1.0000    0.25700   0.49350   0.78580   Biso      1.000     N          -0.071283           
         N3        1.0000    0.40160   0.45400   0.81310   Biso      1.000     N          -0.229542           
         N4        1.0000    0.34140   0.83450   0.57020   Biso      1.000     N          -0.24229099999999998          
         N5        1.0000    0.29350   0.77590   0.49540   Biso      1.000     N          -0.060328999999999994         
         N6        1.0000    0.14800   0.81040   0.48650   Biso      1.000     N          -0.025334           
         N7        1.0000    0.09480   0.89260   0.55250   Biso      1.000     N          -0.26552800000000004          
         N8        1.0000    0.08320   0.04010   0.72060   Biso      1.000     N          -0.201522           
         N9        1.0000    0.22680   0.86710   0.30020   Biso      1.000     N          -0.309023           
         N10       1.0000    0.77320   0.36710   0.19980   Biso      1.000     N          -0.30902399999999997          
         N11       1.0000    0.58320   0.45990   0.27940   Biso      1.000     N          -0.201521           
         N12       1.0000    0.59480   0.60740   0.44750   Biso      1.000     N          -0.26555  
         N13       1.0000    0.64800   0.68960   0.51350   Biso      1.000     N          -0.025343           
         N14       1.0000    0.79350   0.72410   0.50460   Biso      1.000     N          -0.06032100000000001          
         N15       1.0000    0.84140   0.66550   0.42980   Biso      1.000     N          -0.242267           
         N16       1.0000    0.07900   0.37130   0.21400   Biso      1.000     N          -0.23699499999999998          
         N17       1.0000    0.23070   0.40040   0.22660   Biso      1.000     N          -0.069842           
         N18       1.0000    0.24300   0.50650   0.28580   Biso      1.000     N          -0.071285           
         N19       1.0000    0.42100   0.62870   0.71400   Biso      1.000     N          -0.236975           
         N20       1.0000    0.27320   0.13290   0.80020   Biso      1.000     N          -0.30902399999999997          
         N21       1.0000    0.65860   0.33450   0.92980   Biso      1.000     N          -0.242296           
         N22       1.0000    0.85200   0.31040   0.01350   Biso      1.000     N          -0.025377           
         N23       1.0000    0.41680   0.95990   0.22060   Biso      1.000     N          -0.201522           
         N24       1.0000    0.40520   0.10740   0.05250   Biso      1.000     N          -0.26555100000000004          
         N25       1.0000    0.35200   0.18960   0.98650   Biso      1.000     N          -0.025344           
         N26       1.0000    0.20650   0.22410   0.99540   Biso      1.000     N          -0.060320000000000006         
         N27       1.0000    0.15860   0.16550   0.07020   Biso      1.000     N          -0.24226599999999998          
         N28       1.0000    0.92100   0.87130   0.28600   Biso      1.000     N          -0.236994           
         N29       1.0000    0.76930   0.90040   0.27340   Biso      1.000     N          -0.069842           
         N30       1.0000    0.75700   0.00650   0.21420   Biso      1.000     N          -0.071285           
         N31       1.0000    0.90160   0.04600   0.18690   Biso      1.000     N          -0.229543           
         N32       1.0000    0.70650   0.27590   0.00460   Biso      1.000     N          -0.060288           
         N33       1.0000    0.09840   0.54600   0.31310   Biso      1.000     N          -0.229542           
         N34       1.0000    0.59840   0.95400   0.68690   Biso      1.000     N          -0.22954499999999997          
         N35       1.0000    0.74300   0.99350   0.71420   Biso      1.000     N          -0.07131699999999999          
         N36       1.0000    0.73070   0.09960   0.77340   Biso      1.000     N          -0.06982000000000001          
         N37       1.0000    0.57900   0.12870   0.78600   Biso      1.000     N          -0.236979           
         N38       1.0000    0.72680   0.63290   0.69980   Biso      1.000     N          -0.30902399999999997          
         N39       1.0000    0.91680   0.54010   0.77940   Biso      1.000     N          -0.201522           
         N40       1.0000    0.90520   0.39260   0.94750   Biso      1.000     N          -0.265523           
         Zn1       1.0000    0.04852   0.74452   0.37354   Biso      1.000     Zn          0.611013  
         Zn2       1.0000    0.95148   0.24452   0.12646   Biso      1.000     Zn          0.611016  
         Zn3       1.0000    0.54852   0.75548   0.62646   Biso      1.000     Zn          0.611015  
         Zn4       1.0000    0.45148   0.25548   0.87354   Biso      1.000     Zn          0.6110140000000001 