
##########################################################################
#               Crystallographic Information Format file
#               Produced by PyCifRW module
#
#  This is a CIF file.  CIF has been adopted by the International
#  Union of Crystallography as the standard for data archiving and
#  transmission.
#
#  For information on this file format, follow the CIF links at
#  http://www.iucr.org
##########################################################################

data_image0

_cell_length_a                          8.823
_cell_length_b                          9.396
_cell_length_c                          14.546
_cell_angle_alpha                       81.85
_cell_angle_beta                        72.798
_cell_angle_gamma                       65.368
_symmetry_space_group_name_H-M          'P 1'
_symmetry_int_tables_number             1
loop_
  _symmetry_equiv_pos_as_xyz
         'x, y, z' 
loop_
  _atom_site_label
  _atom_site_occupancy
  _atom_site_fract_x
  _atom_site_fract_y
  _atom_site_fract_z
  _atom_site_thermal_displace_type
  _atom_site_B_iso_or_equiv
  _atom_site_type_symbol
  _atom_site_charge
         C1        1.0000    0.15940   0.42330   0.10660   Biso      1.000     C          0.165388  
         C2        1.0000    0.70500   0.86550   0.80940   Biso      1.000     C          -0.097372           
         C3        1.0000    0.86200   0.75790   0.76270   Biso      1.000     C          0.009646  
         C4        1.0000    0.05340   0.29400   0.92280   Biso      1.000     C          -0.075556           
         C5        1.0000    0.19870   0.27630   0.83110   Biso      1.000     C          0.656457  
         C6        1.0000    0.08120   0.16520   0.98550   Biso      1.000     C          -0.057324           
         C7        1.0000    0.90800   0.02120   0.53330   Biso      1.000     C          0.535976  
         C8        1.0000    0.04020   0.53150   0.52830   Biso      1.000     C          0.521184  
         C9        1.0000    0.10180   0.57530   0.05100   Biso      1.000     C          0.118584  
         C10       1.0000    0.30840   0.61630   0.21610   Biso      1.000     C          0.48043500000000006           
         C11       1.0000    0.93390   0.61180   0.80470   Biso      1.000     C          -0.13906400000000002          
         C12       1.0000    0.24600   0.77960   0.16670   Biso      1.000     C          0.495978  
         C13       1.0000    0.04040   0.83570   0.93040   Biso      1.000     C          -0.10769300000000001          
         C14       1.0000    0.38060   0.17520   0.10340   Biso      1.000     C          0.093152  
         C15       1.0000    0.06610   0.38820   0.19530   Biso      1.000     C          -0.139066           
         C16       1.0000    0.29500   0.13450   0.19060   Biso      1.000     C          -0.09736399999999999          
         C17       1.0000    0.13800   0.24210   0.23730   Biso      1.000     C          0.009646  
         C18       1.0000    0.94660   0.70600   0.07720   Biso      1.000     C          -0.075556           
         C19       1.0000    0.80130   0.72370   0.16890   Biso      1.000     C          0.656457  
         C20       1.0000    0.91880   0.83480   0.01450   Biso      1.000     C          -0.05732  
         C21       1.0000    0.09200   0.97880   0.46670   Biso      1.000     C          0.535976  
         C22       1.0000    0.19210   0.70380   0.90920   Biso      1.000     C          0.094996  
         C23       1.0000    0.61940   0.82480   0.89660   Biso      1.000     C          0.09316100000000001           
         C24       1.0000    0.95960   0.16430   0.06960   Biso      1.000     C          -0.107688           
         C25       1.0000    0.75400   0.22040   0.83330   Biso      1.000     C          0.49597700000000006           
         C26       1.0000    0.69160   0.38370   0.78390   Biso      1.000     C          0.48043500000000006           
         C27       1.0000    0.84060   0.57670   0.89340   Biso      1.000     C          0.165388  
         C28       1.0000    0.89820   0.42470   0.94900   Biso      1.000     C          0.118584  
         C29       1.0000    0.95980   0.46850   0.47170   Biso      1.000     C          0.521185  
         C30       1.0000    0.80790   0.29620   0.09080   Biso      1.000     C          0.094996  
         Cu1       1.0000    0.42703   0.38274   0.93446   Biso      1.000     Cu          0.732102  
         Cu2       1.0000    0.57297   0.61726   0.06554   Biso      1.000     Cu          0.732103  
         H1        1.0000    0.72380   0.29710   0.14740   Biso      1.000     H          0.111353  
         H2        1.0000    0.97880   0.07770   0.11130   Biso      1.000     H          0.128728  
         H3        1.0000    0.51180   0.89690   0.92820   Biso      1.000     H          0.100353  
         H4        1.0000    0.04190   0.53910   0.77420   Biso      1.000     H          0.14252599999999999           
         H5        1.0000    0.65770   0.96450   0.78220   Biso      1.000     H          0.136227  
         H6        1.0000    0.92100   0.78260   0.70250   Biso      1.000     H          0.123125  
         H7        1.0000    0.02120   0.92230   0.88870   Biso      1.000     H          0.128729  
         H8        1.0000    0.27620   0.70290   0.85260   Biso      1.000     H          0.111353  
         H9        1.0000    0.48820   0.10310   0.07180   Biso      1.000     H          0.100354  
         H10       1.0000    0.95810   0.46090   0.22580   Biso      1.000     H          0.14252599999999999           
         H11       1.0000    0.34230   0.03550   0.21780   Biso      1.000     H          0.136227  
         H12       1.0000    0.07900   0.21740   0.29750   Biso      1.000     H          0.123125  
         H13       1.0000    0.81560   0.92250   0.03010   Biso      1.000     H          0.11818699999999999           
         H14       1.0000    0.18440   0.07750   0.96990   Biso      1.000     H          0.11818800000000002           
         N1        1.0000    0.31370   0.31630   0.06220   Biso      1.000     N          -0.279356           
         N2        1.0000    0.77870   0.42210   0.03220   Biso      1.000     N          -0.265841           
         N3        1.0000    0.22130   0.57790   0.96780   Biso      1.000     N          -0.265841           
         N4        1.0000    0.68630   0.68370   0.93780   Biso      1.000     N          -0.279357           
         Nd1       1.0000    0.07647   0.18795   0.63437   Biso      1.000     Nd          2.043486  
         Nd2       1.0000    0.92353   0.81205   0.36563   Biso      1.000     Nd          2.043485  
         O1        1.0000    0.10130   0.44370   0.59290   Biso      1.000     O          -0.6044229999999999           
         O2        1.0000    0.67040   0.70980   0.16340   Biso      1.000     O          -0.5538850000000001           
         O3        1.0000    0.10120   0.87620   0.20500   Biso      1.000     O          -0.576911           
         O4        1.0000    0.82130   0.75900   0.24240   Biso      1.000     O          -0.693476           
         O5        1.0000    0.21190   0.59290   0.29270   Biso      1.000     O          -0.540461           
         O6        1.0000    0.45640   0.51850   0.17420   Biso      1.000     O          -0.48433699999999996          
         O7        1.0000    0.35020   0.79850   0.08880   Biso      1.000     O          -0.501428           
         O8        1.0000    0.03880   0.66600   0.50420   Biso      1.000     O          -0.590389           
         O9        1.0000    0.12680   0.91160   0.38950   Biso      1.000     O          -0.594078           
         O10       1.0000    0.80640   0.98660   0.50530   Biso      1.000     O          -0.646302           
         O11       1.0000    0.89870   0.55630   0.40710   Biso      1.000     O          -0.6044229999999999           
         O12       1.0000    0.32960   0.29020   0.83660   Biso      1.000     O          -0.5538850000000001           
         O13       1.0000    0.89880   0.12380   0.79500   Biso      1.000     O          -0.576911           
         O14       1.0000    0.17870   0.24100   0.75760   Biso      1.000     O          -0.693476           
         O15       1.0000    0.78810   0.40710   0.70730   Biso      1.000     O          -0.540462           
         O16       1.0000    0.54360   0.48150   0.82580   Biso      1.000     O          -0.484336           
         O17       1.0000    0.64980   0.20150   0.91120   Biso      1.000     O          -0.501426           
         O18       1.0000    0.96120   0.33400   0.49580   Biso      1.000     O          -0.59039  
         O19       1.0000    0.87320   0.08840   0.61050   Biso      1.000     O          -0.594078           
         O20       1.0000    0.19360   0.01340   0.49470   Biso      1.000     O          -0.646302 