
##########################################################################
#               Crystallographic Information Format file
#               Produced by PyCifRW module
#
#  This is a CIF file.  CIF has been adopted by the International
#  Union of Crystallography as the standard for data archiving and
#  transmission.
#
#  For information on this file format, follow the CIF links at
#  http://www.iucr.org
##########################################################################

data_image0

_cell_length_a                          10.1365
_cell_length_b                          11.4134
_cell_length_c                          29.2794
_cell_angle_alpha                       90
_cell_angle_beta                        90
_cell_angle_gamma                       90
_symmetry_space_group_name_H-M          'P 1'
_symmetry_int_tables_number             1
loop_
  _symmetry_equiv_pos_as_xyz
         'x, y, z' 
loop_
  _atom_site_label
  _atom_site_occupancy
  _atom_site_fract_x
  _atom_site_fract_y
  _atom_site_fract_z
  _atom_site_thermal_displace_type
  _atom_site_B_iso_or_equiv
  _atom_site_type_symbol
  _atom_site_charge
         C1        1.0000    0.33810   0.09530   0.54813   Biso      1.000     C          -0.149877           
         C2        1.0000    0.13670   0.52330   0.30839   Biso      1.000     C          -0.155381           
         C3        1.0000    0.14550   0.54300   0.35519   Biso      1.000     C          -0.092953           
         C4        1.0000    0.24290   0.48320   0.23248   Biso      1.000     C          0.07658999999999999           
         C5        1.0000    0.31910   0.39920   0.21084   Biso      1.000     C          -0.150123           
         C6        1.0000    0.31010   0.38040   0.16418   Biso      1.000     C          -0.094456           
         C7        1.0000    0.22070   0.44470   0.13836   Biso      1.000     C          -0.033169           
         C8        1.0000    0.14340   0.53000   0.15934   Biso      1.000     C          -0.100725           
         C9        1.0000    0.15480   0.54950   0.20613   Biso      1.000     C          -0.15268299999999999          
         C10       1.0000    0.20910   0.42300   0.08810   Biso      1.000     C          0.620789  
         C11       1.0000    0.87450   0.65570   0.50240   Biso      1.000     C          0.608801  
         C12       1.0000    0.75280   0.57720   0.49665   Biso      1.000     C          0.037672000000000004          
         C13       1.0000    0.77150   0.51250   0.45140   Biso      1.000     C          0.063838  
         C14       1.0000    0.83810   0.40470   0.45187   Biso      1.000     C          -0.149877           
         C15       1.0000    0.86330   0.34570   0.41095   Biso      1.000     C          -0.08768  
         C16       1.0000    0.82010   0.39330   0.36994   Biso      1.000     C          -0.100537           
         C17       1.0000    0.25090   0.50130   0.28281   Biso      1.000     C          0.076583  
         C18       1.0000    0.75450   0.49980   0.36929   Biso      1.000     C          -0.093566           
         C19       1.0000    0.37230   0.49780   0.30488   Biso      1.000     C          -0.155746           
         C20       1.0000    0.26720   0.53900   0.37685   Biso      1.000     C          -0.03835  
         C21       1.0000    0.35450   0.45700   0.85519   Biso      1.000     C          -0.092954           
         C22       1.0000    0.25710   0.51680   0.73248   Biso      1.000     C          0.07658999999999999           
         C23       1.0000    0.18990   0.61960   0.66418   Biso      1.000     C          -0.094459           
         C24       1.0000    0.27930   0.55530   0.63836   Biso      1.000     C          -0.033169           
         C25       1.0000    0.35660   0.47000   0.65934   Biso      1.000     C          -0.100725           
         C26       1.0000    0.34520   0.45050   0.70613   Biso      1.000     C          -0.15268299999999999          
         C27       1.0000    0.29090   0.57700   0.58810   Biso      1.000     C          0.620789  
         C28       1.0000    0.37450   0.84430   0.49760   Biso      1.000     C          0.608801  
         C29       1.0000    0.25280   0.92280   0.50335   Biso      1.000     C          0.037672000000000004          
         C30       1.0000    0.27150   0.98750   0.54860   Biso      1.000     C          0.063838  
         C31       1.0000    0.36330   0.15430   0.58905   Biso      1.000     C          -0.08768  
         C32       1.0000    0.32010   0.10670   0.63006   Biso      1.000     C          -0.100537           
         C33       1.0000    0.25450   0.00020   0.63071   Biso      1.000     C          -0.093566           
         C34       1.0000    0.23060   0.94120   0.58944   Biso      1.000     C          -0.13908299999999998          
         C35       1.0000    0.27670   0.56320   0.42684   Biso      1.000     C          0.626683  
         C36       1.0000    0.38140   0.51580   0.35155   Biso      1.000     C          -0.098317           
         C37       1.0000    0.36330   0.47670   0.80839   Biso      1.000     C          -0.15538  
         C38       1.0000    0.73060   0.55880   0.41056   Biso      1.000     C          -0.13908299999999998          
         C39       1.0000    0.76720   0.96100   0.62315   Biso      1.000     C          -0.038352           
         C40       1.0000    0.76940   0.44120   0.91056   Biso      1.000     C          -0.139086           
         C41       1.0000    0.72330   0.06320   0.07316   Biso      1.000     C          0.626684  
         C42       1.0000    0.73280   0.03900   0.12315   Biso      1.000     C          -0.038352           
         C43       1.0000    0.61860   0.01580   0.14845   Biso      1.000     C          -0.098321           
         C44       1.0000    0.62770   0.99780   0.19512   Biso      1.000     C          -0.15574200000000002          
         C45       1.0000    0.74910   0.00130   0.21719   Biso      1.000     C          0.07658200000000001           
         C46       1.0000    0.86330   0.02330   0.19161   Biso      1.000     C          -0.155381           
         C47       1.0000    0.85450   0.04300   0.14481   Biso      1.000     C          -0.092951           
         C48       1.0000    0.75710   0.98320   0.26752   Biso      1.000     C          0.07658999999999999           
         C49       1.0000    0.68090   0.89920   0.28916   Biso      1.000     C          -0.150123           
         C50       1.0000    0.68990   0.88040   0.33582   Biso      1.000     C          -0.094457           
         C51       1.0000    0.77930   0.94470   0.36164   Biso      1.000     C          -0.033169           
         C52       1.0000    0.85660   0.03000   0.34066   Biso      1.000     C          -0.100725           
         C53       1.0000    0.84520   0.04950   0.29387   Biso      1.000     C          -0.15268299999999999          
         C54       1.0000    0.79090   0.92300   0.41190   Biso      1.000     C          0.620788  
         C55       1.0000    0.74550   0.50020   0.86929   Biso      1.000     C          -0.093565           
         C56       1.0000    0.77670   0.93680   0.57316   Biso      1.000     C          0.626683  
         C57       1.0000    0.67990   0.60670   0.86994   Biso      1.000     C          -0.100538           
         C58       1.0000    0.66190   0.59530   0.95187   Biso      1.000     C          -0.14987799999999998          
         C59       1.0000    0.88140   0.98420   0.64845   Biso      1.000     C          -0.098321           
         C60       1.0000    0.87230   0.00220   0.69512   Biso      1.000     C          -0.15574200000000002          
         C61       1.0000    0.75090   0.99870   0.71719   Biso      1.000     C          0.07658200000000001           
         C62       1.0000    0.63670   0.97670   0.69161   Biso      1.000     C          -0.155381           
         C63       1.0000    0.64550   0.95700   0.64481   Biso      1.000     C          -0.092951           
         C64       1.0000    0.74290   0.01680   0.76752   Biso      1.000     C          0.07658999999999999           
         C65       1.0000    0.81910   0.10080   0.78916   Biso      1.000     C          -0.150123           
         C66       1.0000    0.81010   0.11960   0.83582   Biso      1.000     C          -0.094457           
         C67       1.0000    0.72070   0.05530   0.86164   Biso      1.000     C          -0.033169           
         C68       1.0000    0.64340   0.97000   0.84066   Biso      1.000     C          -0.100725           
         C69       1.0000    0.65480   0.95050   0.79387   Biso      1.000     C          -0.15268299999999999          
         C70       1.0000    0.70910   0.07700   0.91190   Biso      1.000     C          0.620788  
         C71       1.0000    0.62550   0.34430   0.00240   Biso      1.000     C          0.608801  
         C72       1.0000    0.74720   0.42280   0.99665   Biso      1.000     C          0.037672000000000004          
         C73       1.0000    0.72850   0.48750   0.95140   Biso      1.000     C          0.063841  
         C74       1.0000    0.63670   0.65430   0.91095   Biso      1.000     C          -0.08767799999999999          
         C75       1.0000    0.24910   0.49870   0.78281   Biso      1.000     C          0.07658200000000001           
         C76       1.0000    0.18090   0.60080   0.71084   Biso      1.000     C          -0.15012  
         C77       1.0000    0.11860   0.48420   0.85155   Biso      1.000     C          -0.098321           
         C78       1.0000    0.24720   0.07720   0.00335   Biso      1.000     C          0.037672000000000004          
         C79       1.0000    0.22850   0.01250   0.04860   Biso      1.000     C          0.063838  
         C80       1.0000    0.16190   0.90470   0.04813   Biso      1.000     C          -0.149877           
         C81       1.0000    0.13670   0.84570   0.08905   Biso      1.000     C          -0.08768  
         C82       1.0000    0.17990   0.89330   0.13006   Biso      1.000     C          -0.100537           
         C83       1.0000    0.12550   0.15570   0.99760   Biso      1.000     C          0.608801  
         C84       1.0000    0.12770   0.50220   0.80488   Biso      1.000     C          -0.15574200000000002          
         C85       1.0000    0.26940   0.05880   0.08944   Biso      1.000     C          -0.13908299999999998          
         C86       1.0000    0.22330   0.43680   0.92684   Biso      1.000     C          0.626683  
         C87       1.0000    0.23280   0.46100   0.87685   Biso      1.000     C          -0.03835  
         C88       1.0000    0.24550   0.99980   0.13071   Biso      1.000     C          -0.093566           
         H1        1.0000    0.40980   0.22650   0.58880   Biso      1.000     H          0.105082  
         H2        1.0000    0.33550   0.14750   0.65780   Biso      1.000     H          0.10080900000000001           
         H3        1.0000    0.22590   0.96740   0.65880   Biso      1.000     H          0.105572  
         H4        1.0000    0.18560   0.86820   0.58980   Biso      1.000     H          0.11232400000000001           
         H5        1.0000    0.46470   0.51240   0.36630   Biso      1.000     H          0.11537599999999999           
         H6        1.0000    0.05310   0.52480   0.29370   Biso      1.000     H          0.112573  
         H7        1.0000    0.06800   0.55910   0.37230   Biso      1.000     H          0.11823099999999999           
         H8        1.0000    0.37880   0.35340   0.22840   Biso      1.000     H          0.114167  
         H9        1.0000    0.36490   0.32370   0.14990   Biso      1.000     H          0.12070299999999999           
         H10       1.0000    0.36610   0.12830   0.52000   Biso      1.000     H          0.11629600000000001           
         H11       1.0000    0.45000   0.48280   0.28770   Biso      1.000     H          0.11293299999999999           
         H12       1.0000    0.25080   0.98130   0.47790   Biso      1.000     H          0.087453  
         H13       1.0000    0.44690   0.47520   0.79370   Biso      1.000     H          0.112573  
         H14       1.0000    0.41700   0.42510   0.64180   Biso      1.000     H          0.115157  
         H15       1.0000    0.13510   0.67630   0.64990   Biso      1.000     H          0.12070399999999999           
         H16       1.0000    0.12120   0.64660   0.72840   Biso      1.000     H          0.114167  
         H17       1.0000    0.43200   0.44090   0.87230   Biso      1.000     H          0.11823099999999999           
         H18       1.0000    0.10240   0.60810   0.22030   Biso      1.000     H          0.114744  
         H19       1.0000    0.05000   0.51720   0.78770   Biso      1.000     H          0.11293299999999999           
         H20       1.0000    0.03530   0.48760   0.86630   Biso      1.000     H          0.11537599999999999           
         H21       1.0000    0.31440   0.13180   0.08980   Biso      1.000     H          0.112323  
         H22       1.0000    0.27410   0.03260   0.15880   Biso      1.000     H          0.105572  
         H23       1.0000    0.16450   0.85250   0.15780   Biso      1.000     H          0.10080900000000001           
         H24       1.0000    0.09020   0.77350   0.08880   Biso      1.000     H          0.105082  
         H25       1.0000    0.13390   0.87170   0.02000   Biso      1.000     H          0.11629600000000001           
         H26       1.0000    0.24920   0.01870   0.97790   Biso      1.000     H          0.087452  
         H27       1.0000    0.39760   0.39190   0.72030   Biso      1.000     H          0.114744  
         H28       1.0000    0.75080   0.51870   0.52210   Biso      1.000     H          0.087452  
         H29       1.0000    0.08300   0.57490   0.14180   Biso      1.000     H          0.115157  
         H30       1.0000    0.90980   0.27350   0.41120   Biso      1.000     H          0.105082  
         H31       1.0000    0.89760   0.10810   0.27970   Biso      1.000     H          0.114744  
         H32       1.0000    0.91700   0.07490   0.35820   Biso      1.000     H          0.115157  
         H33       1.0000    0.63510   0.82370   0.35010   Biso      1.000     H          0.12070299999999999           
         H34       1.0000    0.62120   0.85340   0.27160   Biso      1.000     H          0.114167  
         H35       1.0000    0.86610   0.37170   0.48000   Biso      1.000     H          0.11629600000000001           
         H36       1.0000    0.94690   0.02480   0.20630   Biso      1.000     H          0.112573  
         H37       1.0000    0.55000   0.98280   0.21230   Biso      1.000     H          0.11293299999999999           
         H38       1.0000    0.53530   0.01240   0.13370   Biso      1.000     H          0.11537599999999999           
         H39       1.0000    0.81440   0.36820   0.91020   Biso      1.000     H          0.11232400000000001           
         H40       1.0000    0.77410   0.46740   0.84120   Biso      1.000     H          0.105572  
         H41       1.0000    0.66450   0.64750   0.84220   Biso      1.000     H          0.10080900000000001           
         H42       1.0000    0.59020   0.72650   0.91120   Biso      1.000     H          0.105082  
         H43       1.0000    0.93200   0.05910   0.12770   Biso      1.000     H          0.11823099999999999           
         H44       1.0000    0.74920   0.48130   0.02210   Biso      1.000     H          0.087452  
         H45       1.0000    0.63390   0.62830   0.98000   Biso      1.000     H          0.11629600000000001           
         H46       1.0000    0.83550   0.35250   0.34220   Biso      1.000     H          0.10080900000000001           
         H47       1.0000    0.72590   0.53260   0.34120   Biso      1.000     H          0.105572  
         H48       1.0000    0.96470   0.98760   0.63370   Biso      1.000     H          0.11537599999999999           
         H49       1.0000    0.95000   0.01720   0.71230   Biso      1.000     H          0.11293299999999999           
         H50       1.0000    0.68560   0.63180   0.41020   Biso      1.000     H          0.112323  
         H51       1.0000    0.56800   0.94090   0.62770   Biso      1.000     H          0.11823099999999999           
         H52       1.0000    0.87880   0.14660   0.77160   Biso      1.000     H          0.114168  
         H53       1.0000    0.86490   0.17630   0.85010   Biso      1.000     H          0.12070299999999999           
         H54       1.0000    0.58300   0.92510   0.85820   Biso      1.000     H          0.115157  
         H55       1.0000    0.60240   0.89190   0.77970   Biso      1.000     H          0.114744  
         H56       1.0000    0.55310   0.97520   0.70630   Biso      1.000     H          0.112573  
         O1        1.0000    0.63590   0.64500   0.49813   Biso      1.000     O          -0.611456           
         O2        1.0000    0.38270   0.53130   0.44662   Biso      1.000     O          -0.5965189999999999           
         O3        1.0000    0.30610   0.37090   0.06978   Biso      1.000     O          -0.554143           
         O4        1.0000    0.10630   0.45750   0.06810   Biso      1.000     O          -0.577712           
         O5        1.0000    0.86080   0.76460   0.49609   Biso      1.000     O          -0.578206           
         O6        1.0000    0.98090   0.60570   0.51236   Biso      1.000     O          -0.518202           
         O7        1.0000    0.67990   0.89130   0.55416   Biso      1.000     O          -0.5436850000000001           
         O8        1.0000    0.80610   0.12910   0.93022   Biso      1.000     O          -0.554142           
         O9        1.0000    0.82010   0.10870   0.05416   Biso      1.000     O          -0.543686           
         O10       1.0000    0.86410   0.35500   0.99813   Biso      1.000     O          -0.6114569999999999           
         O11       1.0000    0.51910   0.39430   0.01236   Biso      1.000     O          -0.518202           
         O12       1.0000    0.63920   0.23540   0.99609   Biso      1.000     O          -0.578206           
         O13       1.0000    0.60630   0.04250   0.93190   Biso      1.000     O          -0.577712           
         O14       1.0000    0.17990   0.60870   0.44584   Biso      1.000     O          -0.543686           
         O15       1.0000    0.88270   0.96870   0.55338   Biso      1.000     O          -0.596518           
         O16       1.0000    0.61730   0.03130   0.05338   Biso      1.000     O          -0.596518           
         O17       1.0000    0.13590   0.85500   0.50187   Biso      1.000     O          -0.611456           
         O18       1.0000    0.89370   0.95750   0.43190   Biso      1.000     O          -0.577712           
         O19       1.0000    0.36080   0.73540   0.50391   Biso      1.000     O          -0.578206           
         O20       1.0000    0.48090   0.89430   0.48764   Biso      1.000     O          -0.518201           
         O21       1.0000    0.13920   0.26460   0.00391   Biso      1.000     O          -0.578206           
         O22       1.0000    0.01910   0.10570   0.98764   Biso      1.000     O          -0.518201           
         O23       1.0000    0.36410   0.14500   0.00187   Biso      1.000     O          -0.6114569999999999           
         O24       1.0000    0.69390   0.87090   0.43022   Biso      1.000     O          -0.554142           
         O25       1.0000    0.11730   0.46870   0.94662   Biso      1.000     O          -0.596518           
         O26       1.0000    0.19390   0.62910   0.56978   Biso      1.000     O          -0.554142           
         O27       1.0000    0.39370   0.54250   0.56810   Biso      1.000     O          -0.577712           
         O28       1.0000    0.32010   0.39130   0.94584   Biso      1.000     O          -0.543686           
         Zn1       1.0000    0.53469   0.06981   0.99377   Biso      1.000     Zn          0.99929   
         Zn2       1.0000    0.84139   0.18462   0.99302   Biso      1.000     Zn          0.960902  
         Zn3       1.0000    0.96531   0.93019   0.49377   Biso      1.000     Zn          0.999289  
         Zn4       1.0000    0.65861   0.81538   0.49302   Biso      1.000     Zn          0.960902  
         Zn5       1.0000    0.46531   0.56981   0.50623   Biso      1.000     Zn          0.999289  
         Zn6       1.0000    0.15861   0.68462   0.50698   Biso      1.000     Zn          0.9609030000000001  
         Zn7       1.0000    0.03469   0.43019   0.00623   Biso      1.000     Zn          0.999289  
         Zn8       1.0000    0.34139   0.31538   0.00698   Biso      1.000     Zn          0.9609030000000001 