
##########################################################################
#               Crystallographic Information Format file
#               Produced by PyCifRW module
#
#  This is a CIF file.  CIF has been adopted by the International
#  Union of Crystallography as the standard for data archiving and
#  transmission.
#
#  For information on this file format, follow the CIF links at
#  http://www.iucr.org
##########################################################################

data_image0

_cell_length_a                          10.1071
_cell_length_b                          13.0894
_cell_length_c                          13.6696
_cell_angle_alpha                       97.074
_cell_angle_beta                        109.843
_cell_angle_gamma                       95.596
_symmetry_space_group_name_H-M          'P 1'
_symmetry_int_tables_number             1
loop_
  _symmetry_equiv_pos_as_xyz
         'x, y, z' 
loop_
  _atom_site_label
  _atom_site_occupancy
  _atom_site_fract_x
  _atom_site_fract_y
  _atom_site_fract_z
  _atom_site_thermal_displace_type
  _atom_site_B_iso_or_equiv
  _atom_site_type_symbol
  _atom_site_charge
         C1        1.0000    0.99960   0.27870   0.93710   Biso      1.000     C          0.651157  
         C2        1.0000    0.63380   0.97140   0.55370   Biso      1.000     C          -0.110018           
         C3        1.0000    0.77840   0.94250   0.61380   Biso      1.000     C          0.6276    
         C4        1.0000    0.12870   0.56640   0.04830   Biso      1.000     C          0.063846  
         C5        1.0000    0.87350   0.54020   0.98000   Biso      1.000     C          0.069233  
         C6        1.0000    0.99900   0.60690   0.02760   Biso      1.000     C          -0.14111400000000002          
         C7        1.0000    0.00040   0.72130   0.06290   Biso      1.000     C          0.651157  
         C8        1.0000    0.26640   0.06840   0.05760   Biso      1.000     C          0.635976  
         C9        1.0000    0.38700   0.03340   0.02710   Biso      1.000     C          -0.13375  
         C10       1.0000    0.43150   0.07860   0.95430   Biso      1.000     C          0.057622  
         C11       1.0000    0.45900   0.95630   0.07450   Biso      1.000     C          0.057513999999999996          
         C12       1.0000    0.52510   0.89960   0.47650   Biso      1.000     C          0.069073  
         C13       1.0000    0.39350   0.92720   0.42420   Biso      1.000     C          0.05144   
         C14       1.0000    0.56850   0.92140   0.04570   Biso      1.000     C          0.057623  
         C15       1.0000    0.00100   0.39310   0.97240   Biso      1.000     C          -0.141118           
         C16       1.0000    0.12650   0.45980   0.02000   Biso      1.000     C          0.069236  
         C17       1.0000    0.87130   0.43360   0.95170   Biso      1.000     C          0.063846  
         C18       1.0000    0.54100   0.04370   0.92550   Biso      1.000     C          0.057513999999999996          
         C19       1.0000    0.22160   0.05750   0.38620   Biso      1.000     C          0.6276    
         C20       1.0000    0.36620   0.02860   0.44630   Biso      1.000     C          -0.110018           
         C21       1.0000    0.47490   0.10040   0.52350   Biso      1.000     C          0.069073  
         C22       1.0000    0.60650   0.07280   0.57580   Biso      1.000     C          0.05144   
         C23       1.0000    0.73360   0.93160   0.94240   Biso      1.000     C          0.635976  
         C24       1.0000    0.61300   0.96660   0.97290   Biso      1.000     C          -0.13375  
         Cl1       1.0000    0.71349   0.35118   0.89243   Biso      1.000     Cl          -0.063371           
         Cl2       1.0000    0.71630   0.59048   0.95562   Biso      1.000     Cl          -0.054888           
         Cl3       1.0000    0.28651   0.64882   0.10757   Biso      1.000     Cl          -0.063371           
         Cl4       1.0000    0.56173   0.77567   0.44697   Biso      1.000     Cl          -0.069702           
         Cl5       1.0000    0.26150   0.83618   0.33312   Biso      1.000     Cl          -0.030003           
         Cl6       1.0000    0.35233   0.17975   0.90208   Biso      1.000     Cl          0.000194  
         Cl7       1.0000    0.40864   0.90574   0.16881   Biso      1.000     Cl          -0.023624000000000003         
         Cl8       1.0000    0.64767   0.82025   0.09792   Biso      1.000     Cl          0.000194  
         Cl9       1.0000    0.73850   0.16382   0.66688   Biso      1.000     Cl          -0.030003           
         Cl10      1.0000    0.43827   0.22433   0.55303   Biso      1.000     Cl          -0.069702           
         Cl11      1.0000    0.28370   0.40952   0.04438   Biso      1.000     Cl          -0.054888           
         Cl12      1.0000    0.59136   0.09426   0.83119   Biso      1.000     Cl          -0.023624000000000003         
         H1        1.0000    0.99210   0.89260   0.18310   Biso      1.000     H          0.491514  
         H2        1.0000    0.97740   0.97530   0.25570   Biso      1.000     H          0.474918  
         H3        1.0000    0.02260   0.02470   0.74430   Biso      1.000     H          0.474918  
         H4        1.0000    0.00790   0.10740   0.81690   Biso      1.000     H          0.491514  
         La1       1.0000    0.03628   0.11963   0.13967   Biso      1.000     La          2.028836  
         La2       1.0000    0.96372   0.88037   0.86033   Biso      1.000     La          2.028836  
         O1        1.0000    0.85310   0.99100   0.98060   Biso      1.000     O          -0.693549           
         O2        1.0000    0.12180   0.02600   0.41210   Biso      1.000     O          -0.537417           
         O3        1.0000    0.21820   0.10780   0.31290   Biso      1.000     O          -0.701364           
         O4        1.0000    0.01530   0.25430   0.85150   Biso      1.000     O          -0.504093           
         O5        1.0000    0.98400   0.21680   0.99740   Biso      1.000     O          -0.716066           
         O6        1.0000    0.97410   0.95130   0.19640   Biso      1.000     O          -0.958707           
         O7        1.0000    0.01600   0.78320   0.00260   Biso      1.000     O          -0.716066           
         O8        1.0000    0.98470   0.74570   0.14850   Biso      1.000     O          -0.504093           
         O9        1.0000    0.78180   0.89220   0.68710   Biso      1.000     O          -0.701364           
         O10       1.0000    0.87820   0.97400   0.58790   Biso      1.000     O          -0.537417           
         O11       1.0000    0.14690   0.00900   0.01940   Biso      1.000     O          -0.693549           
         O12       1.0000    0.28780   0.15080   0.12050   Biso      1.000     O          -0.541259           
         O13       1.0000    0.02590   0.04870   0.80360   Biso      1.000     O          -0.958707           
         O14       1.0000    0.71220   0.84920   0.87950   Biso      1.000     O          -0.541259 