
##########################################################################
#               Crystallographic Information Format file
#               Produced by PyCifRW module
#
#  This is a CIF file.  CIF has been adopted by the International
#  Union of Crystallography as the standard for data archiving and
#  transmission.
#
#  For information on this file format, follow the CIF links at
#  http://www.iucr.org
##########################################################################

data_image0

_cell_length_a                          8.887
_cell_length_b                          25.053
_cell_length_c                          10.039
_cell_angle_alpha                       90
_cell_angle_beta                        101.565
_cell_angle_gamma                       90
_symmetry_space_group_name_H-M          'P 1'
_symmetry_int_tables_number             1
loop_
  _symmetry_equiv_pos_as_xyz
         'x, y, z' 
loop_
  _atom_site_label
  _atom_site_occupancy
  _atom_site_fract_x
  _atom_site_fract_y
  _atom_site_fract_z
  _atom_site_thermal_displace_type
  _atom_site_B_iso_or_equiv
  _atom_site_type_symbol
  _atom_site_charge
         C1        1.0000    0.35050   0.26685   0.24780   Biso      1.000     C          0.634003  
         C2        1.0000    0.76010   0.19891   0.45270   Biso      1.000     C          0.075661  
         C3        1.0000    0.14950   0.23315   0.75220   Biso      1.000     C          0.634003  
         C4        1.0000    0.85050   0.23315   0.24780   Biso      1.000     C          0.634003  
         C5        1.0000    0.14950   0.76685   0.75220   Biso      1.000     C          0.634003  
         C6        1.0000    0.19760   0.75817   0.62050   Biso      1.000     C          -0.11334200000000001          
         C7        1.0000    0.23990   0.80109   0.54730   Biso      1.000     C          0.075661  
         C8        1.0000    0.20510   0.70754   0.56730   Biso      1.000     C          0.092186  
         C9        1.0000    0.47590   0.52670   0.87210   Biso      1.000     C          0.061636  
         C10       1.0000    0.02410   0.97330   0.12790   Biso      1.000     C          0.061636  
         C11       1.0000    0.29490   0.79246   0.43270   Biso      1.000     C          0.092198  
         C12       1.0000    0.97590   0.02670   0.87210   Biso      1.000     C          0.061636  
         C13       1.0000    0.26010   0.69891   0.45270   Biso      1.000     C          0.075674  
         C14       1.0000    0.35050   0.73315   0.24780   Biso      1.000     C          0.634003  
         C15       1.0000    0.64950   0.73315   0.75220   Biso      1.000     C          0.634003  
         C16       1.0000    0.69760   0.74183   0.62050   Biso      1.000     C          -0.11334200000000001          
         C17       1.0000    0.73990   0.69891   0.54730   Biso      1.000     C          0.075661  
         C18       1.0000    0.70510   0.79246   0.56730   Biso      1.000     C          0.092186  
         C19       1.0000    0.97590   0.97330   0.87210   Biso      1.000     C          0.061683  
         C20       1.0000    0.50000   0.44350   0.00000   Biso      1.000     C          -0.10981500000000001          
         C21       1.0000    0.47590   0.47330   0.87210   Biso      1.000     C          0.061683  
         C22       1.0000    0.20510   0.29246   0.56730   Biso      1.000     C          0.092185  
         C23       1.0000    0.23990   0.19891   0.54730   Biso      1.000     C          0.075661  
         C24       1.0000    0.30240   0.74183   0.37950   Biso      1.000     C          -0.113344           
         C25       1.0000    0.70510   0.20754   0.56730   Biso      1.000     C          0.092197  
         C26       1.0000    0.80240   0.24183   0.37950   Biso      1.000     C          -0.113344           
         C27       1.0000    0.69760   0.25817   0.62050   Biso      1.000     C          -0.11334200000000001          
         C28       1.0000    0.30240   0.25817   0.37950   Biso      1.000     C          -0.113345           
         C29       1.0000    0.26010   0.30109   0.45270   Biso      1.000     C          0.075674  
         C30       1.0000    0.29490   0.20754   0.43270   Biso      1.000     C          0.092199  
         C31       1.0000    0.02410   0.02670   0.12790   Biso      1.000     C          0.061683  
         C32       1.0000    0.50000   0.38410   0.00000   Biso      1.000     C          0.6065729999999999  
         C33       1.0000    0.00000   0.94350   0.00000   Biso      1.000     C          -0.10981600000000001          
         C34       1.0000    0.00000   0.88410   0.00000   Biso      1.000     C          0.6065729999999999  
         C35       1.0000    0.50000   0.55650   0.00000   Biso      1.000     C          -0.10981600000000001          
         C36       1.0000    0.50000   0.61590   0.00000   Biso      1.000     C          0.6065729999999999  
         C37       1.0000    0.00000   0.05650   0.00000   Biso      1.000     C          -0.10981600000000001          
         C38       1.0000    0.73990   0.30109   0.54730   Biso      1.000     C          0.075661  
         C39       1.0000    0.80240   0.75817   0.37950   Biso      1.000     C          -0.113345           
         C40       1.0000    0.85050   0.76685   0.24780   Biso      1.000     C          0.634003  
         C41       1.0000    0.79490   0.70754   0.43270   Biso      1.000     C          0.092199  
         C42       1.0000    0.64950   0.26685   0.75220   Biso      1.000     C          0.634003  
         C43       1.0000    0.79490   0.29246   0.43270   Biso      1.000     C          0.092199  
         C44       1.0000    0.52410   0.47330   0.12790   Biso      1.000     C          0.061635  
         C45       1.0000    0.76010   0.80109   0.45270   Biso      1.000     C          0.075674  
         C46       1.0000    0.19760   0.24183   0.62050   Biso      1.000     C          -0.11334100000000001          
         C47       1.0000    0.00000   0.11590   0.00000   Biso      1.000     C          0.6065729999999999  
         C48       1.0000    0.52410   0.52670   0.12790   Biso      1.000     C          0.061683  
         Cl1       1.0000    0.76937   0.13507   0.38424   Biso      1.000     Cl          -0.042332999999999996         
         Cl2       1.0000    0.26937   0.63507   0.38424   Biso      1.000     Cl          -0.042334           
         Cl3       1.0000    0.54586   0.43708   0.27250   Biso      1.000     Cl          -0.033194           
         Cl4       1.0000    0.04586   0.93708   0.27250   Biso      1.000     Cl          -0.033194           
         Cl5       1.0000    0.14636   0.34622   0.65594   Biso      1.000     Cl          -0.048355           
         Cl6       1.0000    0.23063   0.13507   0.61576   Biso      1.000     Cl          -0.042332999999999996         
         Cl7       1.0000    0.45414   0.43708   0.72750   Biso      1.000     Cl          -0.033198000000000005         
         Cl8       1.0000    0.85364   0.34622   0.34406   Biso      1.000     Cl          -0.048356           
         Cl9       1.0000    0.35364   0.84622   0.34406   Biso      1.000     Cl          -0.048356           
         Cl10      1.0000    0.73063   0.63507   0.61576   Biso      1.000     Cl          -0.042332999999999996         
         Cl11      1.0000    0.64636   0.15378   0.65594   Biso      1.000     Cl          -0.048356           
         Cl12      1.0000    0.54586   0.56292   0.27250   Biso      1.000     Cl          -0.033198000000000005         
         Cl13      1.0000    0.85364   0.65378   0.34406   Biso      1.000     Cl          -0.048356           
         Cl14      1.0000    0.23063   0.86493   0.61576   Biso      1.000     Cl          -0.042332999999999996         
         Cl15      1.0000    0.14636   0.65378   0.65594   Biso      1.000     Cl          -0.048355           
         Cl16      1.0000    0.45414   0.56292   0.72750   Biso      1.000     Cl          -0.033194           
         Cl17      1.0000    0.76937   0.86493   0.38424   Biso      1.000     Cl          -0.042334           
         Cl18      1.0000    0.73063   0.36493   0.61576   Biso      1.000     Cl          -0.042332999999999996         
         Cl19      1.0000    0.95414   0.06292   0.72750   Biso      1.000     Cl          -0.033194           
         Cl20      1.0000    0.04586   0.06292   0.27250   Biso      1.000     Cl          -0.033198000000000005         
         Cl21      1.0000    0.35364   0.15378   0.34406   Biso      1.000     Cl          -0.048356           
         Cl22      1.0000    0.64636   0.84622   0.65594   Biso      1.000     Cl          -0.048355           
         Cl23      1.0000    0.95414   0.93708   0.72750   Biso      1.000     Cl          -0.033198000000000005         
         Cl24      1.0000    0.26937   0.36493   0.38424   Biso      1.000     Cl          -0.042334           
         La1       1.0000    0.00000   0.76588   0.00000   Biso      1.000     La          1.9619669999999998  
         La2       1.0000    0.50000   0.73412   0.00000   Biso      1.000     La          1.9619669999999998  
         La3       1.0000    0.00000   0.23412   0.00000   Biso      1.000     La          1.9619669999999998  
         La4       1.0000    0.50000   0.26588   0.00000   Biso      1.000     La          1.9619669999999998  
         O1        1.0000    0.87490   0.85900   0.99390   Biso      1.000     O          -0.607122           
         O2        1.0000    0.73320   0.74484   0.86590   Biso      1.000     O          -0.670555           
         O3        1.0000    0.62510   0.64100   0.00610   Biso      1.000     O          -0.607122           
         O4        1.0000    0.23320   0.24484   0.86590   Biso      1.000     O          -0.670555           
         O5        1.0000    0.01130   0.21775   0.75180   Biso      1.000     O          -0.577979           
         O6        1.0000    0.62510   0.35900   0.00610   Biso      1.000     O          -0.607122           
         O7        1.0000    0.26680   0.25516   0.13410   Biso      1.000     O          -0.670555           
         O8        1.0000    0.48870   0.28225   0.24820   Biso      1.000     O          -0.577979           
         O9        1.0000    0.01130   0.78225   0.75180   Biso      1.000     O          -0.577978           
         O10       1.0000    0.87490   0.14100   0.99390   Biso      1.000     O          -0.607122           
         O11       1.0000    0.23320   0.75516   0.86590   Biso      1.000     O          -0.670555           
         O12       1.0000    0.37490   0.35900   0.99390   Biso      1.000     O          -0.607122           
         O13       1.0000    0.98870   0.21775   0.24820   Biso      1.000     O          -0.577979           
         O14       1.0000    0.76680   0.24484   0.13410   Biso      1.000     O          -0.670555           
         O15       1.0000    0.12510   0.14100   0.00610   Biso      1.000     O          -0.607122           
         O16       1.0000    0.51130   0.28225   0.75180   Biso      1.000     O          -0.577978           
         O17       1.0000    0.76680   0.75516   0.13410   Biso      1.000     O          -0.670555           
         O18       1.0000    0.98870   0.78225   0.24820   Biso      1.000     O          -0.577979           
         O19       1.0000    0.37490   0.64100   0.99390   Biso      1.000     O          -0.607122           
         O20       1.0000    0.73320   0.25516   0.86590   Biso      1.000     O          -0.670555           
         O21       1.0000    0.12510   0.85900   0.00610   Biso      1.000     O          -0.607122           
         O22       1.0000    0.26680   0.74484   0.13410   Biso      1.000     O          -0.670555           
         O23       1.0000    0.48870   0.71775   0.24820   Biso      1.000     O          -0.577979           
         O24       1.0000    0.51130   0.71775   0.75180   Biso      1.000     O          -0.577979 