
##########################################################################
#               Crystallographic Information Format file
#               Produced by PyCifRW module
#
#  This is a CIF file.  CIF has been adopted by the International
#  Union of Crystallography as the standard for data archiving and
#  transmission.
#
#  For information on this file format, follow the CIF links at
#  http://www.iucr.org
##########################################################################

data_image0

_cell_length_a                          14.5104
_cell_length_b                          14.5104
_cell_length_c                          15.7725
_cell_angle_alpha                       90
_cell_angle_beta                        90
_cell_angle_gamma                       120
_symmetry_space_group_name_H-M          'P 1'
_symmetry_int_tables_number             1
loop_
  _symmetry_equiv_pos_as_xyz
         'x, y, z' 
loop_
  _atom_site_label
  _atom_site_occupancy
  _atom_site_fract_x
  _atom_site_fract_y
  _atom_site_fract_z
  _atom_site_thermal_displace_type
  _atom_site_B_iso_or_equiv
  _atom_site_type_symbol
  _atom_site_charge
         C1        1.0000    0.86810   0.35000   0.36000   Biso      1.000     C          0.673614  
         C2        1.0000    0.25890   0.84910   0.80490   Biso      1.000     C          -0.167649           
         C3        1.0000    0.35000   0.86810   0.86000   Biso      1.000     C          0.673601  
         C4        1.0000    0.59020   0.74110   0.80490   Biso      1.000     C          -0.167654           
         C5        1.0000    0.51810   0.65000   0.86000   Biso      1.000     C          0.673613  
         C6        1.0000    0.84910   0.59020   0.80490   Biso      1.000     C          -0.16764400000000002          
         C7        1.0000    0.86810   0.51810   0.86000   Biso      1.000     C          0.673607  
         C8        1.0000    0.74110   0.15090   0.80490   Biso      1.000     C          -0.167649           
         C9        1.0000    0.65000   0.13190   0.86000   Biso      1.000     C          0.673601  
         C10       1.0000    0.40980   0.25890   0.80490   Biso      1.000     C          -0.167654           
         C11       1.0000    0.13190   0.48190   0.86000   Biso      1.000     C          0.673607  
         C12       1.0000    0.48190   0.35000   0.86000   Biso      1.000     C          0.673613  
         C13       1.0000    0.65000   0.51810   0.64000   Biso      1.000     C          0.673607  
         C14       1.0000    0.40980   0.15090   0.69510   Biso      1.000     C          -0.16765  
         C15       1.0000    0.48190   0.13190   0.64000   Biso      1.000     C          0.6736    
         C16       1.0000    0.84910   0.25890   0.69510   Biso      1.000     C          -0.167653           
         C17       1.0000    0.86810   0.35000   0.64000   Biso      1.000     C          0.673614  
         C18       1.0000    0.25890   0.40980   0.69510   Biso      1.000     C          -0.16764300000000001          
         C19       1.0000    0.35000   0.48190   0.64000   Biso      1.000     C          0.673607  
         C20       1.0000    0.59020   0.84910   0.69510   Biso      1.000     C          -0.16765  
         C21       1.0000    0.51810   0.86810   0.64000   Biso      1.000     C          0.6736    
         C22       1.0000    0.74110   0.59020   0.69510   Biso      1.000     C          -0.16764300000000001          
         C23       1.0000    0.15090   0.40980   0.80490   Biso      1.000     C          -0.16764400000000002          
         C24       1.0000    0.84910   0.25890   0.30490   Biso      1.000     C          -0.167654           
         C25       1.0000    0.48190   0.13190   0.36000   Biso      1.000     C          0.6736    
         C26       1.0000    0.84910   0.59020   0.19510   Biso      1.000     C          -0.16764400000000002          
         C27       1.0000    0.86810   0.51810   0.14000   Biso      1.000     C          0.673607  
         C28       1.0000    0.74110   0.15090   0.19510   Biso      1.000     C          -0.167649           
         C29       1.0000    0.65000   0.13190   0.14000   Biso      1.000     C          0.673601  
         C30       1.0000    0.40980   0.25890   0.19510   Biso      1.000     C          -0.167654           
         C31       1.0000    0.48190   0.35000   0.14000   Biso      1.000     C          0.673613  
         C32       1.0000    0.15090   0.40980   0.19510   Biso      1.000     C          -0.16764400000000002          
         C33       1.0000    0.13190   0.48190   0.14000   Biso      1.000     C          0.673607  
         C34       1.0000    0.25890   0.84910   0.19510   Biso      1.000     C          -0.167649           
         C35       1.0000    0.35000   0.86810   0.14000   Biso      1.000     C          0.673601  
         C36       1.0000    0.59020   0.74110   0.19510   Biso      1.000     C          -0.167654           
         C37       1.0000    0.51810   0.65000   0.14000   Biso      1.000     C          0.673613  
         C38       1.0000    0.25890   0.40980   0.30490   Biso      1.000     C          -0.16764400000000002          
         C39       1.0000    0.35000   0.48190   0.36000   Biso      1.000     C          0.673607  
         C40       1.0000    0.59020   0.84910   0.30490   Biso      1.000     C          -0.16765  
         C41       1.0000    0.51810   0.86810   0.36000   Biso      1.000     C          0.6736    
         C42       1.0000    0.15090   0.74110   0.30490   Biso      1.000     C          -0.167654           
         C43       1.0000    0.13190   0.65000   0.36000   Biso      1.000     C          0.673614  
         C44       1.0000    0.74110   0.59020   0.30490   Biso      1.000     C          -0.16764300000000001          
         C45       1.0000    0.65000   0.51810   0.36000   Biso      1.000     C          0.673607  
         C46       1.0000    0.40980   0.15090   0.30490   Biso      1.000     C          -0.16765  
         C47       1.0000    0.15090   0.74110   0.69510   Biso      1.000     C          -0.167653           
         C48       1.0000    0.13190   0.65000   0.64000   Biso      1.000     C          0.673614  
         Gd1       1.0000    0.33333   0.66666   0.75000   Biso      1.000     Gd          1.940221  
         Gd2       1.0000    0.66667   0.33334   0.75000   Biso      1.000     Gd          1.940221  
         Gd3       1.0000    0.66667   0.33334   0.25000   Biso      1.000     Gd          1.94022   
         Gd4       1.0000    0.33333   0.66666   0.25000   Biso      1.000     Gd          1.94022   
         H1        1.0000    0.27700   0.91280   0.22740   Biso      1.000     H          0.10925399999999999           
         H2        1.0000    0.63500   0.80260   0.83980   Biso      1.000     H          0.123182  
         H3        1.0000    0.91280   0.63580   0.77260   Biso      1.000     H          0.10925699999999999           
         H4        1.0000    0.83240   0.63500   0.83980   Biso      1.000     H          0.12318299999999999           
         H5        1.0000    0.72300   0.08720   0.77260   Biso      1.000     H          0.10925399999999999           
         H6        1.0000    0.80260   0.16760   0.83980   Biso      1.000     H          0.123177  
         H7        1.0000    0.36420   0.27700   0.77260   Biso      1.000     H          0.109253  
         H8        1.0000    0.36500   0.19740   0.83980   Biso      1.000     H          0.123182  
         H9        1.0000    0.72300   0.63580   0.72740   Biso      1.000     H          0.10925699999999999           
         H10       1.0000    0.80260   0.63500   0.66020   Biso      1.000     H          0.12318299999999999           
         H11       1.0000    0.36500   0.16760   0.66020   Biso      1.000     H          0.123177  
         H12       1.0000    0.63580   0.72300   0.77260   Biso      1.000     H          0.109252  
         H13       1.0000    0.91280   0.27700   0.72740   Biso      1.000     H          0.109252  
         H14       1.0000    0.27700   0.36420   0.72740   Biso      1.000     H          0.10925699999999999           
         H15       1.0000    0.19740   0.36500   0.66020   Biso      1.000     H          0.12318299999999999           
         H16       1.0000    0.63580   0.91280   0.72740   Biso      1.000     H          0.10925399999999999           
         H17       1.0000    0.63500   0.83240   0.66020   Biso      1.000     H          0.123177  
         H18       1.0000    0.08720   0.72300   0.72740   Biso      1.000     H          0.109252  
         H19       1.0000    0.16760   0.80260   0.66020   Biso      1.000     H          0.123182  
         H20       1.0000    0.19740   0.83240   0.16020   Biso      1.000     H          0.123177  
         H21       1.0000    0.36420   0.08720   0.72740   Biso      1.000     H          0.10925399999999999           
         H22       1.0000    0.19740   0.83240   0.83980   Biso      1.000     H          0.123177  
         H23       1.0000    0.83240   0.19740   0.66020   Biso      1.000     H          0.123182  
         H24       1.0000    0.16760   0.36500   0.83980   Biso      1.000     H          0.12318299999999999           
         H25       1.0000    0.16760   0.36500   0.16020   Biso      1.000     H          0.12318399999999999           
         H26       1.0000    0.08720   0.36420   0.22740   Biso      1.000     H          0.10925699999999999           
         H27       1.0000    0.36500   0.19740   0.16020   Biso      1.000     H          0.123182  
         H28       1.0000    0.27700   0.91280   0.77260   Biso      1.000     H          0.109253  
         H29       1.0000    0.80260   0.16760   0.16020   Biso      1.000     H          0.123177  
         H30       1.0000    0.72300   0.08720   0.22740   Biso      1.000     H          0.10925399999999999           
         H31       1.0000    0.83240   0.63500   0.16020   Biso      1.000     H          0.12318399999999999           
         H32       1.0000    0.91280   0.63580   0.22740   Biso      1.000     H          0.10925699999999999           
         H33       1.0000    0.63580   0.72300   0.22740   Biso      1.000     H          0.109253  
         H34       1.0000    0.63500   0.80260   0.16020   Biso      1.000     H          0.123182  
         H35       1.0000    0.27700   0.36420   0.27260   Biso      1.000     H          0.10925699999999999           
         H36       1.0000    0.19740   0.36500   0.33980   Biso      1.000     H          0.12318299999999999           
         H37       1.0000    0.36420   0.27700   0.22740   Biso      1.000     H          0.109252  
         H38       1.0000    0.63500   0.83240   0.33980   Biso      1.000     H          0.123178  
         H39       1.0000    0.08720   0.72300   0.27260   Biso      1.000     H          0.109252  
         H40       1.0000    0.16760   0.80260   0.33980   Biso      1.000     H          0.123182  
         H41       1.0000    0.72300   0.63580   0.27260   Biso      1.000     H          0.10925699999999999           
         H42       1.0000    0.80260   0.63500   0.33980   Biso      1.000     H          0.12318299999999999           
         H43       1.0000    0.36420   0.08720   0.27260   Biso      1.000     H          0.10925399999999999           
         H44       1.0000    0.63580   0.91280   0.27260   Biso      1.000     H          0.109253  
         H45       1.0000    0.08720   0.36420   0.77260   Biso      1.000     H          0.10925699999999999           
         H46       1.0000    0.83240   0.19740   0.33980   Biso      1.000     H          0.123182  
         H47       1.0000    0.36500   0.16760   0.33980   Biso      1.000     H          0.123177  
         H48       1.0000    0.91280   0.27700   0.27260   Biso      1.000     H          0.109252  
         O1        1.0000    0.19569   0.58046   0.14559   Biso      1.000     O          -0.638439           
         O2        1.0000    0.38269   0.94500   0.09043   Biso      1.000     O          -0.580846           
         O3        1.0000    0.38477   0.80431   0.14559   Biso      1.000     O          -0.638418           
         O4        1.0000    0.56231   0.61731   0.09043   Biso      1.000     O          -0.580843           
         O5        1.0000    0.41954   0.61523   0.14559   Biso      1.000     O          -0.638446           
         O6        1.0000    0.38477   0.58046   0.35441   Biso      1.000     O          -0.6384380000000001           
         O7        1.0000    0.05500   0.43769   0.09043   Biso      1.000     O          -0.580839           
         O8        1.0000    0.56231   0.94500   0.40957   Biso      1.000     O          -0.580846           
         O9        1.0000    0.41954   0.80431   0.35441   Biso      1.000     O          -0.638419           
         O10       1.0000    0.05500   0.61731   0.40957   Biso      1.000     O          -0.580843           
         O11       1.0000    0.19569   0.61523   0.35441   Biso      1.000     O          -0.638447           
         O12       1.0000    0.61731   0.56231   0.40957   Biso      1.000     O          -0.580839           
         O13       1.0000    0.61523   0.41954   0.35441   Biso      1.000     O          -0.6384380000000001           
         O14       1.0000    0.38269   0.43769   0.40957   Biso      1.000     O          -0.580839           
         O15       1.0000    0.58046   0.38477   0.14559   Biso      1.000     O          -0.638446           
         O16       1.0000    0.94500   0.56231   0.09043   Biso      1.000     O          -0.580839           
         O17       1.0000    0.61523   0.19569   0.14559   Biso      1.000     O          -0.638418           
         O18       1.0000    0.61731   0.05500   0.09043   Biso      1.000     O          -0.580846           
         O19       1.0000    0.80431   0.41954   0.14559   Biso      1.000     O          -0.638439           
         O20       1.0000    0.23485   0.76515   0.75000   Biso      1.000     O          -0.22340700000000002          
         O21       1.0000    0.53030   0.76515   0.75000   Biso      1.000     O          -0.22340700000000002          
         O22       1.0000    0.23485   0.46970   0.75000   Biso      1.000     O          -0.223437           
         O23       1.0000    0.76515   0.23485   0.75000   Biso      1.000     O          -0.22340700000000002          
         O24       1.0000    0.46970   0.23485   0.75000   Biso      1.000     O          -0.22340700000000002          
         O25       1.0000    0.76515   0.53030   0.75000   Biso      1.000     O          -0.22343600000000002          
         O26       1.0000    0.76515   0.23485   0.25000   Biso      1.000     O          -0.223406           
         O27       1.0000    0.46970   0.23485   0.25000   Biso      1.000     O          -0.22340700000000002          
         O28       1.0000    0.76515   0.53030   0.25000   Biso      1.000     O          -0.22343600000000002          
         O29       1.0000    0.23485   0.76515   0.25000   Biso      1.000     O          -0.22340700000000002          
         O30       1.0000    0.43769   0.05500   0.40957   Biso      1.000     O          -0.580846           
         O31       1.0000    0.43769   0.38269   0.09043   Biso      1.000     O          -0.580843           
         O32       1.0000    0.58046   0.19569   0.35441   Biso      1.000     O          -0.638419           
         O33       1.0000    0.05500   0.61731   0.59043   Biso      1.000     O          -0.580843           
         O34       1.0000    0.80431   0.38477   0.35441   Biso      1.000     O          -0.638447           
         O35       1.0000    0.53030   0.76515   0.25000   Biso      1.000     O          -0.223406           
         O36       1.0000    0.19569   0.61523   0.64559   Biso      1.000     O          -0.638447           
         O37       1.0000    0.41954   0.80431   0.64559   Biso      1.000     O          -0.638419           
         O38       1.0000    0.56231   0.94500   0.59043   Biso      1.000     O          -0.580846           
         O39       1.0000    0.38477   0.58046   0.64559   Biso      1.000     O          -0.6384380000000001           
         O40       1.0000    0.38269   0.43769   0.59043   Biso      1.000     O          -0.580838           
         O41       1.0000    0.80431   0.38477   0.64559   Biso      1.000     O          -0.638447           
         O42       1.0000    0.94500   0.38269   0.59043   Biso      1.000     O          -0.580843           
         O43       1.0000    0.94500   0.38269   0.40957   Biso      1.000     O          -0.580843           
         O44       1.0000    0.43769   0.05500   0.59043   Biso      1.000     O          -0.580846           
         O45       1.0000    0.61523   0.41954   0.64559   Biso      1.000     O          -0.6384380000000001           
         O46       1.0000    0.61731   0.56231   0.59043   Biso      1.000     O          -0.580838           
         O47       1.0000    0.58046   0.19569   0.64559   Biso      1.000     O          -0.638419           
         O48       1.0000    0.43769   0.38269   0.90957   Biso      1.000     O          -0.580843           
         O49       1.0000    0.05500   0.43769   0.90957   Biso      1.000     O          -0.580839           
         O50       1.0000    0.58046   0.38477   0.85441   Biso      1.000     O          -0.638446           
         O51       1.0000    0.38269   0.94500   0.90957   Biso      1.000     O          -0.580846           
         O52       1.0000    0.38477   0.80431   0.85441   Biso      1.000     O          -0.638418           
         O53       1.0000    0.56231   0.61731   0.90957   Biso      1.000     O          -0.580843           
         O54       1.0000    0.19569   0.58046   0.85441   Biso      1.000     O          -0.638439           
         O55       1.0000    0.94500   0.56231   0.90957   Biso      1.000     O          -0.580839           
         O56       1.0000    0.80431   0.41954   0.85441   Biso      1.000     O          -0.638439           
         O57       1.0000    0.61731   0.05500   0.90957   Biso      1.000     O          -0.580846           
         O58       1.0000    0.61523   0.19569   0.85441   Biso      1.000     O          -0.638418           
         O59       1.0000    0.41954   0.61523   0.85441   Biso      1.000     O          -0.638446           
         O60       1.0000    0.23485   0.46970   0.25000   Biso      1.000     O          -0.22343600000000002          
         Zn1       1.0000    0.00000   0.50000   0.50000   Biso      1.000     Zn          1.076885  
         Zn2       1.0000    0.50000   0.00000   0.50000   Biso      1.000     Zn          1.076889  
         Zn3       1.0000    0.50000   0.50000   0.50000   Biso      1.000     Zn          1.076889  
         Zn4       1.0000    0.50000   0.50000   0.00000   Biso      1.000     Zn          1.076883  
         Zn5       1.0000    0.50000   0.00000   0.00000   Biso      1.000     Zn          1.0768870000000001  
         Zn6       1.0000    0.00000   0.50000   0.00000   Biso      1.000     Zn          1.076893 