
##########################################################################
#               Crystallographic Information Format file
#               Produced by PyCifRW module
#
#  This is a CIF file.  CIF has been adopted by the International
#  Union of Crystallography as the standard for data archiving and
#  transmission.
#
#  For information on this file format, follow the CIF links at
#  http://www.iucr.org
##########################################################################

data_image0

_cell_length_a                          14.5102
_cell_length_b                          14.5102
_cell_length_c                          15.832
_cell_angle_alpha                       90
_cell_angle_beta                        90
_cell_angle_gamma                       120
_symmetry_space_group_name_H-M          'P 1'
_symmetry_int_tables_number             1
loop_
  _symmetry_equiv_pos_as_xyz
         'x, y, z' 
loop_
  _atom_site_label
  _atom_site_occupancy
  _atom_site_fract_x
  _atom_site_fract_y
  _atom_site_fract_z
  _atom_site_thermal_displace_type
  _atom_site_B_iso_or_equiv
  _atom_site_type_symbol
  _atom_site_charge
         C1        1.0000    0.40920   0.25950   0.69440   Biso      1.000     C          -0.157071           
         C2        1.0000    0.85030   0.25950   0.80560   Biso      1.000     C          -0.157067           
         C3        1.0000    0.85030   0.59080   0.30560   Biso      1.000     C          -0.157076           
         C4        1.0000    0.35020   0.86800   0.36100   Biso      1.000     C          0.677621  
         C5        1.0000    0.25950   0.85030   0.30560   Biso      1.000     C          -0.157068           
         C6        1.0000    0.35020   0.86800   0.63900   Biso      1.000     C          0.677621  
         C7        1.0000    0.51780   0.64980   0.36100   Biso      1.000     C          0.677621  
         C8        1.0000    0.59080   0.74050   0.30560   Biso      1.000     C          -0.157071           
         C9        1.0000    0.59080   0.85030   0.80560   Biso      1.000     C          -0.157076           
         C10       1.0000    0.51780   0.86800   0.86100   Biso      1.000     C          0.677629  
         C11       1.0000    0.25950   0.85030   0.69440   Biso      1.000     C          -0.157068           
         C12       1.0000    0.13200   0.48220   0.36100   Biso      1.000     C          0.677629  
         C13       1.0000    0.14970   0.40920   0.69440   Biso      1.000     C          -0.157076           
         C14       1.0000    0.14970   0.40920   0.30560   Biso      1.000     C          -0.157076           
         C15       1.0000    0.25950   0.40920   0.80560   Biso      1.000     C          -0.157071           
         C16       1.0000    0.64980   0.13200   0.36100   Biso      1.000     C          0.677621  
         C17       1.0000    0.13200   0.48220   0.63900   Biso      1.000     C          0.677629  
         C18       1.0000    0.74050   0.14970   0.30560   Biso      1.000     C          -0.157068           
         C19       1.0000    0.35020   0.48220   0.86100   Biso      1.000     C          0.677621  
         C20       1.0000    0.48220   0.35020   0.36100   Biso      1.000     C          0.677621  
         C21       1.0000    0.40920   0.25950   0.30560   Biso      1.000     C          -0.157071           
         C22       1.0000    0.14970   0.74050   0.80560   Biso      1.000     C          -0.157068           
         C23       1.0000    0.51780   0.64980   0.63900   Biso      1.000     C          0.677621  
         C24       1.0000    0.13200   0.64980   0.86100   Biso      1.000     C          0.677621  
         C25       1.0000    0.86800   0.51780   0.36100   Biso      1.000     C          0.677629  
         C26       1.0000    0.59080   0.74050   0.69440   Biso      1.000     C          -0.157071           
         C27       1.0000    0.59080   0.85030   0.19440   Biso      1.000     C          -0.157076           
         C28       1.0000    0.51780   0.86800   0.13900   Biso      1.000     C          0.677629  
         C29       1.0000    0.86800   0.35020   0.86100   Biso      1.000     C          0.677621  
         C30       1.0000    0.40920   0.14970   0.19440   Biso      1.000     C          -0.157076           
         C31       1.0000    0.86800   0.51780   0.63900   Biso      1.000     C          0.677629  
         C32       1.0000    0.74050   0.14970   0.69440   Biso      1.000     C          -0.157068           
         C33       1.0000    0.48220   0.13200   0.13900   Biso      1.000     C          0.677629  
         C34       1.0000    0.64980   0.51780   0.13900   Biso      1.000     C          0.677621  
         C35       1.0000    0.40920   0.14970   0.80560   Biso      1.000     C          -0.157076           
         C36       1.0000    0.48220   0.13200   0.86100   Biso      1.000     C          0.677628  
         C37       1.0000    0.85030   0.59080   0.69440   Biso      1.000     C          -0.157076           
         C38       1.0000    0.13200   0.64980   0.13900   Biso      1.000     C          0.677621  
         C39       1.0000    0.64980   0.13200   0.63900   Biso      1.000     C          0.677621  
         C40       1.0000    0.14970   0.74050   0.19440   Biso      1.000     C          -0.157068           
         C41       1.0000    0.74050   0.59080   0.19440   Biso      1.000     C          -0.157071           
         C42       1.0000    0.86800   0.35020   0.13900   Biso      1.000     C          0.677621  
         C43       1.0000    0.74050   0.59080   0.80560   Biso      1.000     C          -0.157071           
         C44       1.0000    0.48220   0.35020   0.63900   Biso      1.000     C          0.67762   
         C45       1.0000    0.35020   0.48220   0.13900   Biso      1.000     C          0.677621  
         C46       1.0000    0.85030   0.25950   0.19440   Biso      1.000     C          -0.157068           
         C47       1.0000    0.64980   0.51780   0.86100   Biso      1.000     C          0.677621  
         C48       1.0000    0.25950   0.40920   0.19440   Biso      1.000     C          -0.157071           
         Gd1       1.0000    0.66667   0.33333   0.25000   Biso      1.000     Gd          1.946085  
         Gd2       1.0000    0.33333   0.66667   0.25000   Biso      1.000     Gd          1.946085  
         Gd3       1.0000    0.33333   0.66667   0.75000   Biso      1.000     Gd          1.946085  
         Gd4       1.0000    0.66667   0.33333   0.75000   Biso      1.000     Gd          1.946085  
         H1        1.0000    0.36330   0.27900   0.72700   Biso      1.000     H          0.10518   
         H2        1.0000    0.27900   0.91570   0.72700   Biso      1.000     H          0.105184  
         H3        1.0000    0.16630   0.80340   0.84080   Biso      1.000     H          0.118494  
         H4        1.0000    0.80340   0.16630   0.65920   Biso      1.000     H          0.118494  
         H5        1.0000    0.08430   0.72100   0.77300   Biso      1.000     H          0.105184  
         H6        1.0000    0.72100   0.08430   0.72700   Biso      1.000     H          0.105184  
         H7        1.0000    0.91570   0.27900   0.77300   Biso      1.000     H          0.105184  
         H8        1.0000    0.19660   0.83370   0.65920   Biso      1.000     H          0.118494  
         H9        1.0000    0.27900   0.36330   0.77300   Biso      1.000     H          0.10518   
         H10       1.0000    0.36290   0.16630   0.84080   Biso      1.000     H          0.118493  
         H11       1.0000    0.91570   0.63670   0.72700   Biso      1.000     H          0.105179  
         H12       1.0000    0.63710   0.83370   0.84080   Biso      1.000     H          0.118493  
         H13       1.0000    0.72100   0.63670   0.77300   Biso      1.000     H          0.10518   
         H14       1.0000    0.63670   0.91570   0.77300   Biso      1.000     H          0.105178  
         H15       1.0000    0.80340   0.63710   0.84080   Biso      1.000     H          0.118487  
         H16       1.0000    0.83370   0.63710   0.65920   Biso      1.000     H          0.118492  
         H17       1.0000    0.83370   0.19660   0.84080   Biso      1.000     H          0.118494  
         H18       1.0000    0.36330   0.08430   0.77300   Biso      1.000     H          0.105178  
         H19       1.0000    0.91570   0.63670   0.27300   Biso      1.000     H          0.105179  
         H20       1.0000    0.19660   0.36290   0.84080   Biso      1.000     H          0.118487  
         H21       1.0000    0.80340   0.16630   0.34080   Biso      1.000     H          0.118494  
         H22       1.0000    0.36330   0.08430   0.22700   Biso      1.000     H          0.105179  
         H23       1.0000    0.72100   0.63670   0.22700   Biso      1.000     H          0.10518   
         H24       1.0000    0.16630   0.80340   0.15920   Biso      1.000     H          0.118494  
         H25       1.0000    0.08430   0.72100   0.22700   Biso      1.000     H          0.105183  
         H26       1.0000    0.80340   0.63710   0.15920   Biso      1.000     H          0.118487  
         H27       1.0000    0.19660   0.36290   0.15920   Biso      1.000     H          0.118488  
         H28       1.0000    0.27900   0.36330   0.22700   Biso      1.000     H          0.10518   
         H29       1.0000    0.83370   0.63710   0.34080   Biso      1.000     H          0.118493  
         H30       1.0000    0.63710   0.83370   0.15920   Biso      1.000     H          0.118493  
         H31       1.0000    0.63670   0.91570   0.22700   Biso      1.000     H          0.105179  
         H32       1.0000    0.19660   0.83370   0.34080   Biso      1.000     H          0.118494  
         H33       1.0000    0.27900   0.91570   0.27300   Biso      1.000     H          0.105183  
         H34       1.0000    0.63710   0.80340   0.34080   Biso      1.000     H          0.118487  
         H35       1.0000    0.08430   0.36330   0.72700   Biso      1.000     H          0.105179  
         H36       1.0000    0.63670   0.72100   0.27300   Biso      1.000     H          0.10518   
         H37       1.0000    0.63710   0.80340   0.65920   Biso      1.000     H          0.118487  
         H38       1.0000    0.36330   0.27900   0.27300   Biso      1.000     H          0.10518   
         H39       1.0000    0.36290   0.19660   0.34080   Biso      1.000     H          0.118487  
         H40       1.0000    0.63670   0.72100   0.72700   Biso      1.000     H          0.10518   
         H41       1.0000    0.72100   0.08430   0.27300   Biso      1.000     H          0.105183  
         H42       1.0000    0.36290   0.19660   0.65920   Biso      1.000     H          0.118487  
         H43       1.0000    0.83370   0.19660   0.15920   Biso      1.000     H          0.118494  
         H44       1.0000    0.08430   0.36330   0.27300   Biso      1.000     H          0.105179  
         H45       1.0000    0.16630   0.36290   0.34080   Biso      1.000     H          0.118492  
         H46       1.0000    0.16630   0.36290   0.65920   Biso      1.000     H          0.118493  
         H47       1.0000    0.91570   0.27900   0.22700   Biso      1.000     H          0.105183  
         H48       1.0000    0.36290   0.16630   0.15920   Biso      1.000     H          0.118493  
         O1        1.0000    0.23470   0.46940   0.75000   Biso      1.000     O          -0.237512           
         O2        1.0000    0.53060   0.76530   0.75000   Biso      1.000     O          -0.237512           
         O3        1.0000    0.94420   0.56120   0.59070   Biso      1.000     O          -0.574935           
         O4        1.0000    0.76530   0.23470   0.75000   Biso      1.000     O          -0.237535           
         O5        1.0000    0.23470   0.76530   0.75000   Biso      1.000     O          -0.237535           
         O6        1.0000    0.53060   0.76530   0.25000   Biso      1.000     O          -0.237512           
         O7        1.0000    0.41920   0.61470   0.64580   Biso      1.000     O          -0.643958           
         O8        1.0000    0.23470   0.46940   0.25000   Biso      1.000     O          -0.237512           
         O9        1.0000    0.23470   0.76530   0.25000   Biso      1.000     O          -0.237535           
         O10       1.0000    0.46940   0.23470   0.25000   Biso      1.000     O          -0.237512           
         O11       1.0000    0.76530   0.53060   0.25000   Biso      1.000     O          -0.237512           
         O12       1.0000    0.38300   0.94420   0.59070   Biso      1.000     O          -0.57493  
         O13       1.0000    0.38530   0.80450   0.64580   Biso      1.000     O          -0.643963           
         O14       1.0000    0.19550   0.58080   0.64580   Biso      1.000     O          -0.643976           
         O15       1.0000    0.56120   0.61700   0.59070   Biso      1.000     O          -0.574936           
         O16       1.0000    0.05580   0.43880   0.59070   Biso      1.000     O          -0.574935           
         O17       1.0000    0.80450   0.41920   0.64580   Biso      1.000     O          -0.643976           
         O18       1.0000    0.76530   0.23470   0.25000   Biso      1.000     O          -0.237535           
         O19       1.0000    0.94420   0.38300   0.09070   Biso      1.000     O          -0.57493  
         O20       1.0000    0.43880   0.38300   0.59070   Biso      1.000     O          -0.574936           
         O21       1.0000    0.19550   0.58080   0.35420   Biso      1.000     O          -0.643976           
         O22       1.0000    0.58080   0.38530   0.64580   Biso      1.000     O          -0.643958           
         O23       1.0000    0.41920   0.61470   0.35420   Biso      1.000     O          -0.643958           
         O24       1.0000    0.56120   0.61700   0.40930   Biso      1.000     O          -0.574936           
         O25       1.0000    0.38530   0.80450   0.35420   Biso      1.000     O          -0.643963           
         O26       1.0000    0.38300   0.94420   0.40930   Biso      1.000     O          -0.574929           
         O27       1.0000    0.41920   0.80450   0.14580   Biso      1.000     O          -0.643976           
         O28       1.0000    0.56120   0.94420   0.09070   Biso      1.000     O          -0.574934           
         O29       1.0000    0.38530   0.58080   0.14580   Biso      1.000     O          -0.643958           
         O30       1.0000    0.38300   0.43880   0.09070   Biso      1.000     O          -0.574937           
         O31       1.0000    0.19550   0.61470   0.14580   Biso      1.000     O          -0.643963           
         O32       1.0000    0.05580   0.61700   0.09070   Biso      1.000     O          -0.57493  
         O33       1.0000    0.58080   0.19550   0.14580   Biso      1.000     O          -0.643976           
         O34       1.0000    0.43880   0.05580   0.09070   Biso      1.000     O          -0.574934           
         O35       1.0000    0.61470   0.41920   0.14580   Biso      1.000     O          -0.643958           
         O36       1.0000    0.61700   0.56120   0.09070   Biso      1.000     O          -0.574936           
         O37       1.0000    0.80450   0.38530   0.14580   Biso      1.000     O          -0.643963           
         O38       1.0000    0.61700   0.05580   0.40930   Biso      1.000     O          -0.57493  
         O39       1.0000    0.61470   0.19550   0.35420   Biso      1.000     O          -0.643963           
         O40       1.0000    0.05580   0.43880   0.40930   Biso      1.000     O          -0.574935           
         O41       1.0000    0.58080   0.38530   0.35420   Biso      1.000     O          -0.643958           
         O42       1.0000    0.61470   0.19550   0.64580   Biso      1.000     O          -0.643963           
         O43       1.0000    0.61700   0.05580   0.59070   Biso      1.000     O          -0.574929           
         O44       1.0000    0.58080   0.19550   0.85420   Biso      1.000     O          -0.643976           
         O45       1.0000    0.43880   0.05580   0.90930   Biso      1.000     O          -0.574934           
         O46       1.0000    0.61470   0.41920   0.85420   Biso      1.000     O          -0.643958           
         O47       1.0000    0.61700   0.56120   0.90930   Biso      1.000     O          -0.574936           
         O48       1.0000    0.80450   0.38530   0.85420   Biso      1.000     O          -0.643963           
         O49       1.0000    0.94420   0.38300   0.90930   Biso      1.000     O          -0.574929           
         O50       1.0000    0.41920   0.80450   0.85420   Biso      1.000     O          -0.643975           
         O51       1.0000    0.56120   0.94420   0.90930   Biso      1.000     O          -0.574934           
         O52       1.0000    0.43880   0.38300   0.40930   Biso      1.000     O          -0.574936           
         O53       1.0000    0.46940   0.23470   0.75000   Biso      1.000     O          -0.237512           
         O54       1.0000    0.76530   0.53060   0.75000   Biso      1.000     O          -0.237512           
         O55       1.0000    0.38530   0.58080   0.85420   Biso      1.000     O          -0.643958           
         O56       1.0000    0.38300   0.43880   0.90930   Biso      1.000     O          -0.574936           
         O57       1.0000    0.19550   0.61470   0.85420   Biso      1.000     O          -0.643963           
         O58       1.0000    0.05580   0.61700   0.90930   Biso      1.000     O          -0.574929           
         O59       1.0000    0.80450   0.41920   0.35420   Biso      1.000     O          -0.643976           
         O60       1.0000    0.94420   0.56120   0.40930   Biso      1.000     O          -0.574935           
         Zn1       1.0000    0.00000   0.50000   0.50000   Biso      1.000     Zn          1.076348  
         Zn2       1.0000    0.50000   0.00000   0.00000   Biso      1.000     Zn          1.076347  
         Zn3       1.0000    0.50000   0.50000   0.00000   Biso      1.000     Zn          1.076344  
         Zn4       1.0000    0.00000   0.50000   0.00000   Biso      1.000     Zn          1.076352  
         Zn5       1.0000    0.50000   0.00000   0.50000   Biso      1.000     Zn          1.076351  
         Zn6       1.0000    0.50000   0.50000   0.50000   Biso      1.000     Zn          1.076344 