
##########################################################################
#               Crystallographic Information Format file
#               Produced by PyCifRW module
#
#  This is a CIF file.  CIF has been adopted by the International
#  Union of Crystallography as the standard for data archiving and
#  transmission.
#
#  For information on this file format, follow the CIF links at
#  http://www.iucr.org
##########################################################################

data_image0

_cell_length_a                          8.5947
_cell_length_b                          13.187
_cell_length_c                          9.6462
_cell_angle_alpha                       90
_cell_angle_beta                        96.496
_cell_angle_gamma                       90
_symmetry_space_group_name_H-M          'P 1'
_symmetry_int_tables_number             1
loop_
  _symmetry_equiv_pos_as_xyz
         'x, y, z' 
loop_
  _atom_site_label
  _atom_site_occupancy
  _atom_site_fract_x
  _atom_site_fract_y
  _atom_site_fract_z
  _atom_site_thermal_displace_type
  _atom_site_B_iso_or_equiv
  _atom_site_type_symbol
  _atom_site_charge
         C1        1.0000    0.09270   0.02560   0.62710   Biso      1.000     C          -0.075963           
         C2        1.0000    0.02670   0.04810   0.37610   Biso      1.000     C          -0.058148000000000005         
         C3        1.0000    0.12030   0.07270   0.50050   Biso      1.000     C          -0.051627           
         C4        1.0000    0.90730   0.97440   0.37290   Biso      1.000     C          -0.075963           
         C5        1.0000    0.19690   0.05100   0.76160   Biso      1.000     C          0.6643140000000001  
         C6        1.0000    0.73920   0.85830   0.50330   Biso      1.000     C          0.605596  
         C7        1.0000    0.45520   0.60950   0.25300   Biso      1.000     C          0.6059859999999999  
         C8        1.0000    0.87970   0.92730   0.49950   Biso      1.000     C          -0.051626           
         C9        1.0000    0.97330   0.95190   0.62390   Biso      1.000     C          -0.058149           
         C10       1.0000    0.95520   0.89050   0.75300   Biso      1.000     C          0.6059859999999999  
         C11       1.0000    0.47330   0.54810   0.12390   Biso      1.000     C          -0.058148000000000005         
         C12       1.0000    0.04480   0.10950   0.24700   Biso      1.000     C          0.6059859999999999  
         C13       1.0000    0.26080   0.14170   0.49670   Biso      1.000     C          0.605596  
         C14       1.0000    0.37970   0.57270   0.99950   Biso      1.000     C          -0.051627           
         C15       1.0000    0.59270   0.47440   0.12710   Biso      1.000     C          -0.075963           
         C16       1.0000    0.23920   0.64170   0.00330   Biso      1.000     C          0.605596  
         C17       1.0000    0.69690   0.44900   0.26160   Biso      1.000     C          0.6643140000000001  
         C18       1.0000    0.30310   0.55100   0.73840   Biso      1.000     C          0.6643140000000001  
         C19       1.0000    0.76080   0.35830   0.99670   Biso      1.000     C          0.605596  
         C20       1.0000    0.40730   0.52560   0.87290   Biso      1.000     C          -0.075963           
         C21       1.0000    0.62030   0.42730   0.00050   Biso      1.000     C          -0.051626           
         C22       1.0000    0.52670   0.45190   0.87610   Biso      1.000     C          -0.058149           
         C23       1.0000    0.54480   0.39050   0.74700   Biso      1.000     C          0.6059859999999999  
         C24       1.0000    0.80310   0.94900   0.23840   Biso      1.000     C          0.6643140000000001  
         Nd1       1.0000    0.45044   0.73446   0.50342   Biso      1.000     Nd          2.132613  
         Nd2       1.0000    0.54956   0.26554   0.49658   Biso      1.000     Nd          2.132613  
         Nd3       1.0000    0.04956   0.23446   0.99658   Biso      1.000     Nd          2.132613  
         Nd4       1.0000    0.95044   0.76554   0.00342   Biso      1.000     Nd          2.132613  
         O1        1.0000    0.64840   0.38420   0.34120   Biso      1.000     O          -0.756364           
         O2        1.0000    0.04670   0.06650   0.13010   Biso      1.000     O          -0.595267           
         O3        1.0000    0.05370   0.20600   0.25850   Biso      1.000     O          -0.648119           
         O4        1.0000    0.28800   0.21170   0.58560   Biso      1.000     O          -0.602762           
         O5        1.0000    0.35320   0.12400   0.40370   Biso      1.000     O          -0.68283  
         O6        1.0000    0.82830   0.49230   0.28100   Biso      1.000     O          -0.53743  
         O7        1.0000    0.14680   0.62400   0.09630   Biso      1.000     O          -0.682829           
         O8        1.0000    0.32830   0.00770   0.78100   Biso      1.000     O          -0.53743  
         O9        1.0000    0.44630   0.70600   0.24150   Biso      1.000     O          -0.648119           
         O10       1.0000    0.45330   0.56650   0.36990   Biso      1.000     O          -0.595267           
         O11       1.0000    0.85160   0.88420   0.15880   Biso      1.000     O          -0.756364           
         O12       1.0000    0.14840   0.11580   0.84120   Biso      1.000     O          -0.756364           
         O13       1.0000    0.64680   0.87600   0.59630   Biso      1.000     O          -0.682829           
         O14       1.0000    0.71200   0.78830   0.41440   Biso      1.000     O          -0.602762           
         O15       1.0000    0.94630   0.79400   0.74150   Biso      1.000     O          -0.648119           
         O16       1.0000    0.95330   0.93350   0.86990   Biso      1.000     O          -0.595267           
         O17       1.0000    0.17170   0.50770   0.71900   Biso      1.000     O          -0.537429           
         O18       1.0000    0.35160   0.61580   0.65880   Biso      1.000     O          -0.756364           
         O19       1.0000    0.85320   0.37600   0.90370   Biso      1.000     O          -0.682829           
         O20       1.0000    0.78800   0.28830   0.08560   Biso      1.000     O          -0.602762           
         O21       1.0000    0.55370   0.29400   0.75850   Biso      1.000     O          -0.648119           
         O22       1.0000    0.54670   0.43350   0.63010   Biso      1.000     O          -0.595267           
         O23       1.0000    0.21200   0.71170   0.91440   Biso      1.000     O          -0.602762           
         O24       1.0000    0.67170   0.99230   0.21900   Biso      1.000     O          -0.53743 