
##########################################################################
#               Crystallographic Information Format file
#               Produced by PyCifRW module
#
#  This is a CIF file.  CIF has been adopted by the International
#  Union of Crystallography as the standard for data archiving and
#  transmission.
#
#  For information on this file format, follow the CIF links at
#  http://www.iucr.org
##########################################################################

data_image0

_cell_length_a                          18.4448
_cell_length_b                          18.4448
_cell_length_c                          9.8084
_cell_angle_alpha                       90
_cell_angle_beta                        90
_cell_angle_gamma                       120
_symmetry_space_group_name_H-M          'P 1'
_symmetry_int_tables_number             1
loop_
  _symmetry_equiv_pos_as_xyz
         'x, y, z' 
loop_
  _atom_site_label
  _atom_site_occupancy
  _atom_site_fract_x
  _atom_site_fract_y
  _atom_site_fract_z
  _atom_site_thermal_displace_type
  _atom_site_B_iso_or_equiv
  _atom_site_type_symbol
  _atom_site_charge
         C1        1.0000    0.11090   0.61950   0.12670   Biso      1.000     C          -0.08777  
         C2        1.0000    0.28990   0.52660   0.25000   Biso      1.000     C          -0.128149           
         C3        1.0000    0.75940   0.28920   0.00450   Biso      1.000     C          0.600913  
         C4        1.0000    0.80520   0.32040   0.87290   Biso      1.000     C          -0.034151           
         C5        1.0000    0.88910   0.38050   0.87330   Biso      1.000     C          -0.087768           
         C6        1.0000    0.46900   0.44620   0.25000   Biso      1.000     C          0.556653  
         C7        1.0000    0.40920   0.47680   0.25000   Biso      1.000     C          -0.039641           
         C8        1.0000    0.19480   0.67960   0.12710   Biso      1.000     C          -0.034149           
         C9        1.0000    0.71080   0.47020   0.00450   Biso      1.000     C          0.600909  
         C10       1.0000    0.67960   0.48480   0.87290   Biso      1.000     C          -0.034152           
         C11       1.0000    0.61950   0.50860   0.87330   Biso      1.000     C          -0.087768           
         C12       1.0000    0.61950   0.50860   0.62670   Biso      1.000     C          -0.08777  
         C13       1.0000    0.32040   0.51520   0.12710   Biso      1.000     C          -0.034152           
         C14       1.0000    0.23670   0.71010   0.25000   Biso      1.000     C          -0.128131           
         C15       1.0000    0.06760   0.59080   0.25000   Biso      1.000     C          -0.039639           
         C16       1.0000    0.52980   0.24060   0.49550   Biso      1.000     C          0.600912  
         C17       1.0000    0.51520   0.19480   0.62710   Biso      1.000     C          -0.03415  
         C18       1.0000    0.49140   0.11090   0.62670   Biso      1.000     C          -0.087766           
         C19       1.0000    0.67960   0.48480   0.62710   Biso      1.000     C          -0.03415  
         C20       1.0000    0.71080   0.47020   0.49550   Biso      1.000     C          0.600909  
         C21       1.0000    0.47340   0.76330   0.25000   Biso      1.000     C          -0.128143           
         C22       1.0000    0.55380   0.02280   0.25000   Biso      1.000     C          0.556658  
         C23       1.0000    0.75940   0.28920   0.49550   Biso      1.000     C          0.600913  
         C24       1.0000    0.80520   0.32040   0.62710   Biso      1.000     C          -0.034151           
         C25       1.0000    0.88910   0.38050   0.62670   Biso      1.000     C          -0.087768           
         C26       1.0000    0.97720   0.53100   0.25000   Biso      1.000     C          0.556658  
         C27       1.0000    0.38050   0.49140   0.12670   Biso      1.000     C          -0.087769           
         C28       1.0000    0.47680   0.06760   0.75000   Biso      1.000     C          -0.039639           
         C29       1.0000    0.49140   0.11090   0.87330   Biso      1.000     C          -0.087768           
         C30       1.0000    0.24060   0.71080   0.99550   Biso      1.000     C          0.600914  
         C31       1.0000    0.71010   0.47340   0.75000   Biso      1.000     C          -0.128146           
         C32       1.0000    0.47020   0.75940   0.50450   Biso      1.000     C          0.600911  
         C33       1.0000    0.48480   0.80520   0.37290   Biso      1.000     C          -0.034149           
         C34       1.0000    0.50860   0.88910   0.37330   Biso      1.000     C          -0.087766           
         C35       1.0000    0.53100   0.55380   0.75000   Biso      1.000     C          0.556654  
         C36       1.0000    0.59080   0.52320   0.75000   Biso      1.000     C          -0.039641           
         C37       1.0000    0.24060   0.71080   0.50450   Biso      1.000     C          0.600914  
         C38       1.0000    0.19480   0.67960   0.37290   Biso      1.000     C          -0.03415  
         C39       1.0000    0.11090   0.61950   0.37330   Biso      1.000     C          -0.087768           
         C40       1.0000    0.28920   0.52980   0.99550   Biso      1.000     C          0.600909  
         C41       1.0000    0.76330   0.28990   0.75000   Biso      1.000     C          -0.128131           
         C42       1.0000    0.50860   0.88910   0.12670   Biso      1.000     C          -0.087768           
         C43       1.0000    0.93240   0.40920   0.75000   Biso      1.000     C          -0.039639           
         C44       1.0000    0.28920   0.52980   0.50450   Biso      1.000     C          0.600909  
         C45       1.0000    0.32040   0.51520   0.37290   Biso      1.000     C          -0.034152           
         C46       1.0000    0.38050   0.49140   0.37330   Biso      1.000     C          -0.087768           
         C47       1.0000    0.48480   0.80520   0.12710   Biso      1.000     C          -0.034148           
         C48       1.0000    0.47020   0.75940   0.99550   Biso      1.000     C          0.600911  
         C49       1.0000    0.52660   0.23670   0.75000   Biso      1.000     C          -0.128141           
         C50       1.0000    0.44620   0.97720   0.75000   Biso      1.000     C          0.556659  
         C51       1.0000    0.52980   0.24060   0.00450   Biso      1.000     C          0.600911  
         C52       1.0000    0.51520   0.19480   0.87290   Biso      1.000     C          -0.034147           
         C53       1.0000    0.02280   0.46900   0.75000   Biso      1.000     C          0.556657  
         C54       1.0000    0.52320   0.93240   0.25000   Biso      1.000     C          -0.039639           
         H1        1.0000    0.51500   0.91680   0.04450   Biso      1.000     H          0.132213  
         H2        1.0000    0.59820   0.51500   0.54450   Biso      1.000     H          0.132212  
         H3        1.0000    0.08320   0.59820   0.04450   Biso      1.000     H          0.132212  
         H4        1.0000    0.29300   0.75110   0.25000   Biso      1.000     H          0.125084  
         H5        1.0000    0.91680   0.40180   0.54450   Biso      1.000     H          0.132212  
         H6        1.0000    0.75110   0.45810   0.75000   Biso      1.000     H          0.125082  
         H7        1.0000    0.51500   0.91680   0.45550   Biso      1.000     H          0.132213  
         H8        1.0000    0.70700   0.24890   0.75000   Biso      1.000     H          0.125084  
         H9        1.0000    0.08320   0.59820   0.45550   Biso      1.000     H          0.132212  
         H10       1.0000    0.40180   0.48500   0.45550   Biso      1.000     H          0.132212  
         H11       1.0000    0.40180   0.48500   0.04450   Biso      1.000     H          0.132212  
         H12       1.0000    0.54190   0.29300   0.75000   Biso      1.000     H          0.125084  
         H13       1.0000    0.48500   0.08320   0.95550   Biso      1.000     H          0.132213  
         H14       1.0000    0.24890   0.54190   0.25000   Biso      1.000     H          0.125082  
         H15       1.0000    0.91680   0.40180   0.95550   Biso      1.000     H          0.132212  
         H16       1.0000    0.59820   0.51500   0.95550   Biso      1.000     H          0.132212  
         H17       1.0000    0.48500   0.08320   0.54450   Biso      1.000     H          0.132213  
         H18       1.0000    0.45810   0.70700   0.25000   Biso      1.000     H          0.125085  
         O1        1.0000    0.22620   0.53840   0.99560   Biso      1.000     O          -0.570324           
         O2        1.0000    0.49370   0.43140   0.13900   Biso      1.000     O          -0.588261           
         O3        1.0000    0.32680   0.53290   0.88590   Biso      1.000     O          -0.650198           
         O4        1.0000    0.56860   0.06230   0.36100   Biso      1.000     O          -0.588261           
         O5        1.0000    0.77380   0.46160   0.49560   Biso      1.000     O          -0.570324           
         O6        1.0000    0.31220   0.77380   0.99560   Biso      1.000     O          -0.570332           
         O7        1.0000    0.79390   0.32680   0.11410   Biso      1.000     O          -0.650189           
         O8        1.0000    0.68780   0.22620   0.00440   Biso      1.000     O          -0.570332           
         O9        1.0000    0.06230   0.49370   0.86100   Biso      1.000     O          -0.58825  
         O10       1.0000    0.53290   0.20610   0.11410   Biso      1.000     O          -0.650206           
         O11       1.0000    0.53840   0.31220   0.00440   Biso      1.000     O          -0.570335           
         O12       1.0000    0.43140   0.93770   0.86100   Biso      1.000     O          -0.588261           
         O13       1.0000    0.20610   0.67320   0.88590   Biso      1.000     O          -0.650189           
         O14       1.0000    0.32680   0.53290   0.61410   Biso      1.000     O          -0.650198           
         O15       1.0000    0.49370   0.43140   0.36100   Biso      1.000     O          -0.588261           
         O16       1.0000    0.20610   0.67320   0.61410   Biso      1.000     O          -0.650189           
         O17       1.0000    0.31220   0.77380   0.50440   Biso      1.000     O          -0.570332           
         O18       1.0000    0.93770   0.50630   0.36100   Biso      1.000     O          -0.58825  
         O19       1.0000    0.46710   0.79390   0.61410   Biso      1.000     O          -0.650207           
         O20       1.0000    0.46160   0.68780   0.50440   Biso      1.000     O          -0.570335           
         O21       1.0000    0.22620   0.53840   0.50440   Biso      1.000     O          -0.570324           
         O22       1.0000    0.77380   0.46160   0.00440   Biso      1.000     O          -0.570324           
         O23       1.0000    0.50630   0.56860   0.86100   Biso      1.000     O          -0.588261           
         O24       1.0000    0.67320   0.46710   0.11410   Biso      1.000     O          -0.650198           
         O25       1.0000    0.93770   0.50630   0.13900   Biso      1.000     O          -0.58825  
         O26       1.0000    0.46710   0.79390   0.88590   Biso      1.000     O          -0.650207           
         O27       1.0000    0.46160   0.68780   0.99560   Biso      1.000     O          -0.570335           
         O28       1.0000    0.56860   0.06230   0.13900   Biso      1.000     O          -0.588261           
         O29       1.0000    0.67320   0.46710   0.38590   Biso      1.000     O          -0.650198           
         O30       1.0000    0.66667   0.33333   0.25000   Biso      1.000     O          -1.106885           
         O31       1.0000    0.79390   0.32680   0.38590   Biso      1.000     O          -0.650189           
         O32       1.0000    0.50630   0.56860   0.63900   Biso      1.000     O          -0.588261           
         O33       1.0000    0.06230   0.49370   0.63900   Biso      1.000     O          -0.58825  
         O34       1.0000    0.53290   0.20610   0.38590   Biso      1.000     O          -0.650207           
         O35       1.0000    0.53840   0.31220   0.49560   Biso      1.000     O          -0.570335           
         O36       1.0000    0.43140   0.93770   0.63900   Biso      1.000     O          -0.588261           
         O37       1.0000    0.68780   0.22620   0.49560   Biso      1.000     O          -0.570332           
         O38       1.0000    0.33333   0.66667   0.75000   Biso      1.000     O          -1.106885           
         Th1       1.0000    0.20201   0.55584   0.75000   Biso      1.000     Th          2.250097  
         Th2       1.0000    0.55584   0.35383   0.25000   Biso      1.000     Th          2.250214  
         Th3       1.0000    0.64617   0.20201   0.25000   Biso      1.000     Th          2.250173  
         Th4       1.0000    0.79799   0.44416   0.25000   Biso      1.000     Th          2.250097  
         Th5       1.0000    0.44416   0.64617   0.75000   Biso      1.000     Th          2.250214  
         Th6       1.0000    0.35383   0.79799   0.75000   Biso      1.000     Th          2.250173 