
##########################################################################
#               Crystallographic Information Format file
#               Produced by PyCifRW module
#
#  This is a CIF file.  CIF has been adopted by the International
#  Union of Crystallography as the standard for data archiving and
#  transmission.
#
#  For information on this file format, follow the CIF links at
#  http://www.iucr.org
##########################################################################

data_image0

_cell_length_a                          5.5462
_cell_length_b                          13.343
_cell_length_c                          21.164
_cell_angle_alpha                       90
_cell_angle_beta                        96.516
_cell_angle_gamma                       90
_symmetry_space_group_name_H-M          'P 1'
_symmetry_int_tables_number             1
loop_
  _symmetry_equiv_pos_as_xyz
         'x, y, z' 
loop_
  _atom_site_label
  _atom_site_occupancy
  _atom_site_fract_x
  _atom_site_fract_y
  _atom_site_fract_z
  _atom_site_thermal_displace_type
  _atom_site_B_iso_or_equiv
  _atom_site_type_symbol
  _atom_site_charge
         C1        1.0000    0.90800   0.60430   0.17040   Biso      1.000     C          -0.200122           
         C2        1.0000    0.82000   0.03740   0.16610   Biso      1.000     C          -0.424678           
         C3        1.0000    0.92300   0.06270   0.27850   Biso      1.000     C          -0.087958           
         C4        1.0000    0.09200   0.10430   0.32960   Biso      1.000     C          -0.200122           
         C5        1.0000    0.14300   0.21680   0.32280   Biso      1.000     C          -0.111446           
         C6        1.0000    0.20900   0.23610   0.25550   Biso      1.000     C          -0.223331           
         C7        1.0000    0.03000   0.18550   0.20360   Biso      1.000     C          -0.111102           
         C8        1.0000    0.32300   0.26180   0.37380   Biso      1.000     C          0.631992  
         C9        1.0000    0.18000   0.53740   0.33390   Biso      1.000     C          -0.424678           
         C10       1.0000    0.07700   0.56270   0.22150   Biso      1.000     C          -0.087958           
         C11       1.0000    0.85700   0.71680   0.17720   Biso      1.000     C          -0.111445           
         C12       1.0000    0.79100   0.73610   0.24450   Biso      1.000     C          -0.223331           
         C13       1.0000    0.97000   0.68550   0.29640   Biso      1.000     C          -0.111102           
         C14       1.0000    0.18000   0.96260   0.83390   Biso      1.000     C          -0.424678           
         C15       1.0000    0.67700   0.76180   0.12620   Biso      1.000     C          0.631992  
         C16       1.0000    0.92300   0.43730   0.77850   Biso      1.000     C          -0.087958           
         C17       1.0000    0.90800   0.89570   0.67040   Biso      1.000     C          -0.200122           
         C18       1.0000    0.85700   0.78320   0.67720   Biso      1.000     C          -0.111446           
         C19       1.0000    0.79100   0.76390   0.74450   Biso      1.000     C          -0.223331           
         C20       1.0000    0.97000   0.81450   0.79640   Biso      1.000     C          -0.111102           
         C21       1.0000    0.67700   0.73820   0.62620   Biso      1.000     C          0.631992  
         C22       1.0000    0.82000   0.46260   0.66610   Biso      1.000     C          -0.424678           
         C23       1.0000    0.07700   0.93730   0.72150   Biso      1.000     C          -0.087958           
         C24       1.0000    0.09200   0.39570   0.82960   Biso      1.000     C          -0.200122           
         C25       1.0000    0.14300   0.28320   0.82280   Biso      1.000     C          -0.111446           
         C26       1.0000    0.20900   0.26390   0.75550   Biso      1.000     C          -0.223331           
         C27       1.0000    0.03000   0.31450   0.70360   Biso      1.000     C          -0.111102           
         C28       1.0000    0.32300   0.23820   0.87380   Biso      1.000     C          0.631992  
         H1        1.0000    0.76460   0.40700   0.78020   Biso      1.000     H          0.067676  
         H2        1.0000    0.02800   0.40680   0.86980   Biso      1.000     H          0.109814  
         H3        1.0000    0.67770   0.42000   0.66260   Biso      1.000     H          0.126611  
         H4        1.0000    0.24470   0.43190   0.83110   Biso      1.000     H          0.098667  
         H5        1.0000    0.87420   0.28110   0.70170   Biso      1.000     H          0.071189  
         H6        1.0000    0.21000   0.19220   0.74790   Biso      1.000     H          0.109686  
         H7        1.0000    0.37160   0.28890   0.75240   Biso      1.000     H          0.094384  
         H8        1.0000    0.09030   0.30600   0.66260   Biso      1.000     H          0.109409  
         H9        1.0000    0.77180   0.52790   0.68030   Biso      1.000     H          0.16141   
         H10       1.0000    0.98880   0.24880   0.82570   Biso      1.000     H          0.107116  
         H11       1.0000    0.12580   0.78110   0.79830   Biso      1.000     H          0.071189  
         H12       1.0000    0.90650   0.50870   0.78550   Biso      1.000     H          0.099587  
         H13       1.0000    0.62840   0.78890   0.74760   Biso      1.000     H          0.094384  
         H14       1.0000    0.23540   0.59300   0.21980   Biso      1.000     H          0.067676  
         H15       1.0000    0.32230   0.58000   0.33740   Biso      1.000     H          0.126611  
         H16       1.0000    0.22820   0.47210   0.31970   Biso      1.000     H          0.16141   
         H17       1.0000    0.87420   0.21890   0.20170   Biso      1.000     H          0.071189  
         H18       1.0000    0.09030   0.19400   0.16260   Biso      1.000     H          0.109409  
         H19       1.0000    0.90970   0.80600   0.83740   Biso      1.000     H          0.109409  
         H20       1.0000    0.09350   0.49130   0.21450   Biso      1.000     H          0.099587  
         H21       1.0000    0.21000   0.30780   0.24790   Biso      1.000     H          0.109686  
         H22       1.0000    0.24470   0.06810   0.33110   Biso      1.000     H          0.098667  
         H23       1.0000    0.02800   0.09320   0.36980   Biso      1.000     H          0.109814  
         H24       1.0000    0.90650   0.99130   0.28550   Biso      1.000     H          0.099587  
         H25       1.0000    0.76460   0.09300   0.28020   Biso      1.000     H          0.067676  
         H26       1.0000    0.67770   0.08000   0.16260   Biso      1.000     H          0.126611  
         H27       1.0000    0.77180   0.97210   0.18030   Biso      1.000     H          0.16141   
         H28       1.0000    0.98880   0.25120   0.32570   Biso      1.000     H          0.107116  
         H29       1.0000    0.97200   0.59320   0.13020   Biso      1.000     H          0.109814  
         H30       1.0000    0.37160   0.21110   0.25240   Biso      1.000     H          0.094384  
         H31       1.0000    0.01120   0.75120   0.17430   Biso      1.000     H          0.107116  
         H32       1.0000    0.75530   0.56810   0.16890   Biso      1.000     H          0.098667  
         H33       1.0000    0.79000   0.69220   0.75210   Biso      1.000     H          0.109686  
         H34       1.0000    0.01120   0.74880   0.67430   Biso      1.000     H          0.107116  
         H35       1.0000    0.75530   0.93190   0.66890   Biso      1.000     H          0.098667  
         H36       1.0000    0.09350   0.00870   0.71450   Biso      1.000     H          0.099587  
         H37       1.0000    0.23540   0.90700   0.71980   Biso      1.000     H          0.067676  
         H38       1.0000    0.97200   0.90680   0.63020   Biso      1.000     H          0.109814  
         H39       1.0000    0.22820   0.02790   0.81970   Biso      1.000     H          0.16141   
         H40       1.0000    0.12580   0.71890   0.29830   Biso      1.000     H          0.071189  
         H41       1.0000    0.90970   0.69400   0.33740   Biso      1.000     H          0.109409  
         H42       1.0000    0.62840   0.71110   0.24760   Biso      1.000     H          0.094384  
         H43       1.0000    0.79000   0.80780   0.25210   Biso      1.000     H          0.109686  
         H44       1.0000    0.32230   0.92000   0.83740   Biso      1.000     H          0.126612  
         N1        1.0000    0.00400   0.57860   0.28520   Biso      1.000     N          -0.095023           
         N2        1.0000    0.99600   0.42140   0.71480   Biso      1.000     N          -0.095023           
         N3        1.0000    0.00400   0.92140   0.78520   Biso      1.000     N          -0.095023           
         N4        1.0000    0.99600   0.07860   0.21480   Biso      1.000     N          -0.095023           
         O1        1.0000    0.70400   0.74350   0.06900   Biso      1.000     O          -0.722039           
         O2        1.0000    0.87180   0.45390   0.41020   Biso      1.000     O          -0.842063           
         O3        1.0000    0.50200   0.81450   0.13970   Biso      1.000     O          -0.637232           
         O4        1.0000    0.03740   0.87610   0.94190   Biso      1.000     O          -0.903388           
         O5        1.0000    0.96260   0.37610   0.55810   Biso      1.000     O          -0.903388           
         O6        1.0000    0.68650   0.51710   0.54490   Biso      1.000     O          -0.989658           
         O7        1.0000    0.50200   0.68550   0.63970   Biso      1.000     O          -0.637232           
         O8        1.0000    0.70400   0.75650   0.56900   Biso      1.000     O          -0.722039           
         O9        1.0000    0.87180   0.04610   0.91020   Biso      1.000     O          -0.842063           
         O10       1.0000    0.03740   0.62390   0.44190   Biso      1.000     O          -0.903388           
         O11       1.0000    0.31350   0.01710   0.95510   Biso      1.000     O          -0.989658           
         O12       1.0000    0.12820   0.54610   0.58980   Biso      1.000     O          -0.842063           
         O13       1.0000    0.31350   0.48290   0.45510   Biso      1.000     O          -0.989658           
         O14       1.0000    0.49800   0.18550   0.86030   Biso      1.000     O          -0.637232           
         O15       1.0000    0.29600   0.24350   0.43100   Biso      1.000     O          -0.722039           
         O16       1.0000    0.12820   0.95390   0.08980   Biso      1.000     O          -0.842063           
         O17       1.0000    0.96260   0.12390   0.05810   Biso      1.000     O          -0.903388           
         O18       1.0000    0.68650   0.98290   0.04490   Biso      1.000     O          -0.989658           
         O19       1.0000    0.29600   0.25650   0.93100   Biso      1.000     O          -0.722039           
         O20       1.0000    0.49800   0.31450   0.36030   Biso      1.000     O          -0.637232           
         P1        1.0000    0.91590   0.47670   0.58711   Biso      1.000     P          1.415114  
         P2        1.0000    0.08410   0.97670   0.91289   Biso      1.000     P          1.415114  
         P3        1.0000    0.08410   0.52330   0.41289   Biso      1.000     P          1.415114  
         P4        1.0000    0.91590   0.02330   0.08711   Biso      1.000     P          1.415114  
         Sm1       1.0000    0.62667   0.36744   0.47225   Biso      1.000     Sm          2.145382  
         Sm2       1.0000    0.37333   0.86744   0.02775   Biso      1.000     Sm          2.145383  
         Sm3       1.0000    0.37333   0.63256   0.52775   Biso      1.000     Sm          2.145382  
         Sm4       1.0000    0.62667   0.13256   0.97225   Biso      1.000     Sm          2.145382 