
##########################################################################
#               Crystallographic Information Format file
#               Produced by PyCifRW module
#
#  This is a CIF file.  CIF has been adopted by the International
#  Union of Crystallography as the standard for data archiving and
#  transmission.
#
#  For information on this file format, follow the CIF links at
#  http://www.iucr.org
##########################################################################

data_image0

_cell_length_a                          5.534
_cell_length_b                          13.436
_cell_length_c                          20.891
_cell_angle_alpha                       90
_cell_angle_beta                        96.159
_cell_angle_gamma                       90
_symmetry_space_group_name_H-M          'P 1'
_symmetry_int_tables_number             1
loop_
  _symmetry_equiv_pos_as_xyz
         'x, y, z' 
loop_
  _atom_site_label
  _atom_site_occupancy
  _atom_site_fract_x
  _atom_site_fract_y
  _atom_site_fract_z
  _atom_site_thermal_displace_type
  _atom_site_B_iso_or_equiv
  _atom_site_type_symbol
  _atom_site_charge
         C1        1.0000    0.78900   0.73340   0.24430   Biso      1.000     C          -0.221408           
         C2        1.0000    0.32200   0.26400   0.37470   Biso      1.000     C          0.626847  
         C3        1.0000    0.17900   0.53820   0.33330   Biso      1.000     C          -0.431701           
         C4        1.0000    0.07600   0.56560   0.21960   Biso      1.000     C          -0.08984500000000001          
         C5        1.0000    0.90200   0.60830   0.16820   Biso      1.000     C          -0.21281  
         C6        1.0000    0.85800   0.71950   0.17730   Biso      1.000     C          -0.10485599999999999          
         C7        1.0000    0.14200   0.21950   0.32270   Biso      1.000     C          -0.10485599999999999          
         C8        1.0000    0.97400   0.68830   0.29590   Biso      1.000     C          -0.11408800000000001          
         C9        1.0000    0.67800   0.76400   0.12530   Biso      1.000     C          0.626847  
         C10       1.0000    0.17900   0.96180   0.83330   Biso      1.000     C          -0.431701           
         C11       1.0000    0.07600   0.93440   0.71960   Biso      1.000     C          -0.08984500000000001          
         C12       1.0000    0.90200   0.89170   0.66820   Biso      1.000     C          -0.21281  
         C13       1.0000    0.85800   0.78050   0.67730   Biso      1.000     C          -0.10485599999999999          
         C14       1.0000    0.78900   0.76660   0.74430   Biso      1.000     C          -0.221408           
         C15       1.0000    0.97400   0.81170   0.79590   Biso      1.000     C          -0.11408800000000001          
         C16       1.0000    0.67800   0.73600   0.62530   Biso      1.000     C          0.626847  
         C17       1.0000    0.82100   0.46180   0.66670   Biso      1.000     C          -0.431701           
         C18       1.0000    0.92400   0.43440   0.78040   Biso      1.000     C          -0.08984500000000001          
         C19       1.0000    0.09800   0.39170   0.83180   Biso      1.000     C          -0.21281  
         C20       1.0000    0.14200   0.28050   0.82270   Biso      1.000     C          -0.10485599999999999          
         C21       1.0000    0.21100   0.26660   0.75570   Biso      1.000     C          -0.221408           
         C22       1.0000    0.02600   0.31170   0.70410   Biso      1.000     C          -0.11408800000000001          
         C23       1.0000    0.32200   0.23600   0.87470   Biso      1.000     C          0.626847  
         C24       1.0000    0.09800   0.10830   0.33180   Biso      1.000     C          -0.21281  
         C25       1.0000    0.92400   0.06560   0.28040   Biso      1.000     C          -0.08984400000000001          
         C26       1.0000    0.82100   0.03820   0.16670   Biso      1.000     C          -0.431701           
         C27       1.0000    0.02600   0.18830   0.20410   Biso      1.000     C          -0.11408800000000001          
         C28       1.0000    0.21100   0.23340   0.25570   Biso      1.000     C          -0.221408           
         Gd1       1.0000    0.62624   0.13165   0.97231   Biso      1.000     Gd          2.110031  
         Gd2       1.0000    0.62624   0.36835   0.47231   Biso      1.000     Gd          2.110031  
         Gd3       1.0000    0.37376   0.86835   0.02769   Biso      1.000     Gd          2.11003   
         Gd4       1.0000    0.37376   0.63165   0.52769   Biso      1.000     Gd          2.110031  
         H1        1.0000    0.07900   0.30140   0.66180   Biso      1.000     H          0.112474  
         H2        1.0000    0.36840   0.29730   0.75280   Biso      1.000     H          0.093696  
         H3        1.0000    0.22690   0.19600   0.74740   Biso      1.000     H          0.10713699999999998           
         H4        1.0000    0.98680   0.24650   0.82480   Biso      1.000     H          0.107447  
         H5        1.0000    0.25150   0.42680   0.83270   Biso      1.000     H          0.102086  
         H6        1.0000    0.03630   0.40190   0.87310   Biso      1.000     H          0.109779  
         H7        1.0000    0.90590   0.50510   0.78820   Biso      1.000     H          0.100194  
         H8        1.0000    0.76630   0.40340   0.78180   Biso      1.000     H          0.068861  
         H9        1.0000    0.67910   0.41890   0.66330   Biso      1.000     H          0.12805899999999998           
         H10       1.0000    0.86950   0.27930   0.70500   Biso      1.000     H          0.07746   
         H11       1.0000    0.13050   0.77930   0.79500   Biso      1.000     H          0.07746   
         H12       1.0000    0.23370   0.59660   0.21820   Biso      1.000     H          0.068861  
         H13       1.0000    0.32090   0.58110   0.33670   Biso      1.000     H          0.12805899999999998           
         H14       1.0000    0.22930   0.47380   0.31850   Biso      1.000     H          0.16229100000000002           
         H15       1.0000    0.86950   0.22070   0.20500   Biso      1.000     H          0.07746   
         H16       1.0000    0.07900   0.19860   0.16180   Biso      1.000     H          0.112474  
         H17       1.0000    0.36840   0.20270   0.25280   Biso      1.000     H          0.093696  
         H18       1.0000    0.09410   0.49490   0.21180   Biso      1.000     H          0.100194  
         H19       1.0000    0.22690   0.30400   0.24740   Biso      1.000     H          0.10713699999999998           
         H20       1.0000    0.25150   0.07320   0.33270   Biso      1.000     H          0.102087  
         H21       1.0000    0.03630   0.09810   0.37310   Biso      1.000     H          0.109779  
         H22       1.0000    0.77070   0.52620   0.68150   Biso      1.000     H          0.16229100000000002           
         H23       1.0000    0.76630   0.09660   0.28180   Biso      1.000     H          0.068861  
         H24       1.0000    0.67910   0.08110   0.16330   Biso      1.000     H          0.12805899999999998           
         H25       1.0000    0.77070   0.97380   0.18150   Biso      1.000     H          0.16229100000000002           
         H26       1.0000    0.98680   0.25350   0.32480   Biso      1.000     H          0.107447  
         H27       1.0000    0.96370   0.59810   0.12690   Biso      1.000     H          0.109779  
         H28       1.0000    0.90590   0.99490   0.28820   Biso      1.000     H          0.100194  
         H29       1.0000    0.01320   0.75350   0.17520   Biso      1.000     H          0.107447  
         H30       1.0000    0.92100   0.80140   0.83820   Biso      1.000     H          0.112475  
         H31       1.0000    0.63160   0.79730   0.74720   Biso      1.000     H          0.093696  
         H32       1.0000    0.77310   0.69600   0.75260   Biso      1.000     H          0.10713699999999998           
         H33       1.0000    0.01320   0.74650   0.67520   Biso      1.000     H          0.107447  
         H34       1.0000    0.74850   0.92680   0.66730   Biso      1.000     H          0.102086  
         H35       1.0000    0.96370   0.90190   0.62690   Biso      1.000     H          0.109779  
         H36       1.0000    0.74850   0.57320   0.16730   Biso      1.000     H          0.102086  
         H37       1.0000    0.09410   0.00510   0.71180   Biso      1.000     H          0.100194  
         H38       1.0000    0.32090   0.91890   0.83670   Biso      1.000     H          0.12805899999999998           
         H39       1.0000    0.22930   0.02620   0.81850   Biso      1.000     H          0.16229100000000002           
         H40       1.0000    0.13050   0.72070   0.29500   Biso      1.000     H          0.07746   
         H41       1.0000    0.92100   0.69860   0.33820   Biso      1.000     H          0.112475  
         H42       1.0000    0.63160   0.70270   0.24720   Biso      1.000     H          0.093696  
         H43       1.0000    0.77310   0.80400   0.25260   Biso      1.000     H          0.10713699999999998           
         H44       1.0000    0.23370   0.90340   0.71820   Biso      1.000     H          0.068861  
         N1        1.0000    0.00210   0.42010   0.71650   Biso      1.000     N          -0.097499           
         N2        1.0000    0.99790   0.92010   0.78350   Biso      1.000     N          -0.097499           
         N3        1.0000    0.00210   0.07990   0.21650   Biso      1.000     N          -0.097499           
         N4        1.0000    0.99790   0.57990   0.28350   Biso      1.000     N          -0.097499           
         O1        1.0000    0.87270   0.45360   0.40970   Biso      1.000     O          -0.8391290000000001           
         O2        1.0000    0.12730   0.54640   0.59030   Biso      1.000     O          -0.8391290000000001           
         O3        1.0000    0.95920   0.37760   0.55730   Biso      1.000     O          -0.89536  
         O4        1.0000    0.68210   0.51870   0.54560   Biso      1.000     O          -0.9777110000000001           
         O5        1.0000    0.50190   0.68310   0.64030   Biso      1.000     O          -0.634595           
         O6        1.0000    0.70240   0.75220   0.56690   Biso      1.000     O          -0.706683           
         O7        1.0000    0.87270   0.04640   0.90970   Biso      1.000     O          -0.8391290000000001           
         O8        1.0000    0.04080   0.87760   0.94270   Biso      1.000     O          -0.89536  
         O9        1.0000    0.31790   0.01870   0.95440   Biso      1.000     O          -0.9777110000000001           
         O10       1.0000    0.50190   0.81690   0.14030   Biso      1.000     O          -0.634595           
         O11       1.0000    0.70240   0.74780   0.06690   Biso      1.000     O          -0.706683           
         O12       1.0000    0.49810   0.18310   0.85970   Biso      1.000     O          -0.634595           
         O13       1.0000    0.04080   0.62240   0.44270   Biso      1.000     O          -0.89536  
         O14       1.0000    0.31790   0.48130   0.45440   Biso      1.000     O          -0.9777110000000001           
         O15       1.0000    0.49810   0.31690   0.35970   Biso      1.000     O          -0.634595           
         O16       1.0000    0.29760   0.24780   0.43310   Biso      1.000     O          -0.706683           
         O17       1.0000    0.12730   0.95360   0.09030   Biso      1.000     O          -0.8391290000000001           
         O18       1.0000    0.95920   0.12240   0.05730   Biso      1.000     O          -0.89536  
         O19       1.0000    0.68210   0.98130   0.04560   Biso      1.000     O          -0.9777110000000001           
         O20       1.0000    0.29760   0.25220   0.93310   Biso      1.000     O          -0.706683           
         P1        1.0000    0.91360   0.47770   0.58645   Biso      1.000     P          1.419325  
         P2        1.0000    0.08640   0.97770   0.91355   Biso      1.000     P          1.419325  
         P3        1.0000    0.91360   0.02230   0.08645   Biso      1.000     P          1.419325  
         P4        1.0000    0.08640   0.52230   0.41355   Biso      1.000     P          1.419325 