
##########################################################################
#               Crystallographic Information Format file
#               Produced by PyCifRW module
#
#  This is a CIF file.  CIF has been adopted by the International
#  Union of Crystallography as the standard for data archiving and
#  transmission.
#
#  For information on this file format, follow the CIF links at
#  http://www.iucr.org
##########################################################################

data_image0

_cell_length_a                          5.5871
_cell_length_b                          13.424
_cell_length_c                          21.157
_cell_angle_alpha                       90
_cell_angle_beta                        96.148
_cell_angle_gamma                       90
_symmetry_space_group_name_H-M          'P 1'
_symmetry_int_tables_number             1
loop_
  _symmetry_equiv_pos_as_xyz
         'x, y, z' 
loop_
  _atom_site_label
  _atom_site_occupancy
  _atom_site_fract_x
  _atom_site_fract_y
  _atom_site_fract_z
  _atom_site_thermal_displace_type
  _atom_site_B_iso_or_equiv
  _atom_site_type_symbol
  _atom_site_charge
         C1        1.0000    0.09390   0.39200   0.83040   Biso      1.000     C          -0.21054  
         C2        1.0000    0.14400   0.28120   0.82040   Biso      1.000     C          -0.110398           
         C3        1.0000    0.81490   0.03890   0.16530   Biso      1.000     C          -0.429683           
         C4        1.0000    0.91320   0.06720   0.27900   Biso      1.000     C          -0.096672           
         C5        1.0000    0.09390   0.10800   0.33040   Biso      1.000     C          -0.210539           
         C6        1.0000    0.14400   0.21880   0.32040   Biso      1.000     C          -0.110399           
         C7        1.0000    0.21680   0.23280   0.25370   Biso      1.000     C          -0.221223           
         C8        1.0000    0.02830   0.18910   0.20320   Biso      1.000     C          -0.113716           
         C9        1.0000    0.91320   0.43280   0.77900   Biso      1.000     C          -0.096672           
         C10       1.0000    0.18510   0.53890   0.33470   Biso      1.000     C          -0.429683           
         C11       1.0000    0.08680   0.56720   0.22100   Biso      1.000     C          -0.096672           
         C12       1.0000    0.90610   0.60800   0.16960   Biso      1.000     C          -0.210539           
         C13       1.0000    0.85600   0.71880   0.17960   Biso      1.000     C          -0.110398           
         C14       1.0000    0.78320   0.73280   0.24630   Biso      1.000     C          -0.221224           
         C15       1.0000    0.32600   0.26090   0.37170   Biso      1.000     C          0.632017  
         C16       1.0000    0.67400   0.76090   0.12830   Biso      1.000     C          0.632017  
         C17       1.0000    0.97170   0.68910   0.29680   Biso      1.000     C          -0.113716           
         C18       1.0000    0.67400   0.73910   0.62830   Biso      1.000     C          0.632017  
         C19       1.0000    0.97170   0.81090   0.79680   Biso      1.000     C          -0.113717           
         C20       1.0000    0.78320   0.76720   0.74630   Biso      1.000     C          -0.221223           
         C21       1.0000    0.32600   0.23910   0.87170   Biso      1.000     C          0.632017  
         C22       1.0000    0.81490   0.46110   0.66530   Biso      1.000     C          -0.429683           
         C23       1.0000    0.21680   0.26720   0.75370   Biso      1.000     C          -0.221223           
         C24       1.0000    0.85600   0.78120   0.67960   Biso      1.000     C          -0.110398           
         C25       1.0000    0.90610   0.89200   0.66960   Biso      1.000     C          -0.210539           
         C26       1.0000    0.08680   0.93280   0.72100   Biso      1.000     C          -0.096672           
         C27       1.0000    0.18510   0.96110   0.83470   Biso      1.000     C          -0.429683           
         C28       1.0000    0.02830   0.31090   0.70320   Biso      1.000     C          -0.113716           
         H1        1.0000    0.76470   0.52550   0.67990   Biso      1.000     H          0.165336  
         H2        1.0000    0.67430   0.41820   0.66150   Biso      1.000     H          0.129419  
         H3        1.0000    0.76010   0.39940   0.78060   Biso      1.000     H          0.072851  
         H4        1.0000    0.88940   0.50320   0.78640   Biso      1.000     H          0.100258  
         H5        1.0000    0.99240   0.24520   0.82250   Biso      1.000     H          0.108771  
         H6        1.0000    0.24310   0.42900   0.83090   Biso      1.000     H          0.103509  
         H7        1.0000    0.23620   0.19670   0.74560   Biso      1.000     H          0.109157  
         H8        1.0000    0.37050   0.29950   0.75080   Biso      1.000     H          0.094594  
         H9        1.0000    0.08070   0.30170   0.66130   Biso      1.000     H          0.112042  
         H10       1.0000    0.03350   0.40090   0.87130   Biso      1.000     H          0.108757  
         H11       1.0000    0.12350   0.77620   0.79570   Biso      1.000     H          0.075805  
         H12       1.0000    0.87650   0.27620   0.70430   Biso      1.000     H          0.075805  
         H13       1.0000    0.62950   0.79950   0.74920   Biso      1.000     H          0.094594  
         H14       1.0000    0.76470   0.97450   0.17990   Biso      1.000     H          0.165336  
         H15       1.0000    0.67430   0.08180   0.16150   Biso      1.000     H          0.129419  
         H16       1.0000    0.76010   0.10060   0.28060   Biso      1.000     H          0.072851  
         H17       1.0000    0.88940   0.99680   0.28640   Biso      1.000     H          0.100258  
         H18       1.0000    0.03350   0.09910   0.37130   Biso      1.000     H          0.108757  
         H19       1.0000    0.24310   0.07100   0.33090   Biso      1.000     H          0.103509  
         H20       1.0000    0.99240   0.25480   0.32250   Biso      1.000     H          0.108771  
         H21       1.0000    0.23620   0.30330   0.24560   Biso      1.000     H          0.109157  
         H22       1.0000    0.37050   0.20050   0.25080   Biso      1.000     H          0.094594  
         H23       1.0000    0.08070   0.19830   0.16130   Biso      1.000     H          0.112042  
         H24       1.0000    0.87650   0.22380   0.20430   Biso      1.000     H          0.075805  
         H25       1.0000    0.23530   0.47450   0.32010   Biso      1.000     H          0.165336  
         H26       1.0000    0.91930   0.80170   0.83870   Biso      1.000     H          0.112042  
         H27       1.0000    0.23990   0.60060   0.21940   Biso      1.000     H          0.072851  
         H28       1.0000    0.32570   0.58180   0.33850   Biso      1.000     H          0.129419  
         H29       1.0000    0.96650   0.59910   0.12870   Biso      1.000     H          0.108757  
         H30       1.0000    0.00760   0.74520   0.67750   Biso      1.000     H          0.108771  
         H31       1.0000    0.75690   0.92900   0.66910   Biso      1.000     H          0.103509  
         H32       1.0000    0.96650   0.90090   0.62870   Biso      1.000     H          0.108757  
         H33       1.0000    0.11060   0.00320   0.71360   Biso      1.000     H          0.100258  
         H34       1.0000    0.11060   0.49680   0.21360   Biso      1.000     H          0.100258  
         H35       1.0000    0.32570   0.91820   0.83850   Biso      1.000     H          0.129419  
         H36       1.0000    0.23990   0.89940   0.71940   Biso      1.000     H          0.072851  
         H37       1.0000    0.12350   0.72380   0.29570   Biso      1.000     H          0.075805  
         H38       1.0000    0.91930   0.69830   0.33870   Biso      1.000     H          0.112042  
         H39       1.0000    0.62950   0.70050   0.24920   Biso      1.000     H          0.094595  
         H40       1.0000    0.76380   0.80330   0.25440   Biso      1.000     H          0.109158  
         H41       1.0000    0.00760   0.75480   0.17750   Biso      1.000     H          0.108771  
         H42       1.0000    0.75690   0.57100   0.16910   Biso      1.000     H          0.103509  
         H43       1.0000    0.23530   0.02550   0.82010   Biso      1.000     H          0.165336  
         H44       1.0000    0.76380   0.69670   0.75440   Biso      1.000     H          0.109158  
         N1        1.0000    0.99420   0.08120   0.21510   Biso      1.000     N          -0.101892           
         N2        1.0000    0.00580   0.58120   0.28490   Biso      1.000     N          -0.101892           
         N3        1.0000    0.00580   0.91880   0.78490   Biso      1.000     N          -0.101892           
         N4        1.0000    0.99420   0.41880   0.71510   Biso      1.000     N          -0.101892           
         Nd1       1.0000    0.62854   0.13445   0.97151   Biso      1.000     Nd          2.143878  
         Nd2       1.0000    0.62854   0.36555   0.47151   Biso      1.000     Nd          2.143878  
         Nd3       1.0000    0.37146   0.86555   0.02849   Biso      1.000     Nd          2.143878  
         Nd4       1.0000    0.37146   0.63445   0.52849   Biso      1.000     Nd          2.143878  
         O1        1.0000    0.03680   0.62330   0.44260   Biso      1.000     O          -0.903988           
         O2        1.0000    0.12270   0.54760   0.59190   Biso      1.000     O          -0.84014  
         O3        1.0000    0.96320   0.37670   0.55740   Biso      1.000     O          -0.903987           
         O4        1.0000    0.68580   0.51740   0.54648   Biso      1.000     O          -0.9769   
         O5        1.0000    0.50520   0.68490   0.64210   Biso      1.000     O          -0.628588           
         O6        1.0000    0.70080   0.75560   0.57060   Biso      1.000     O          -0.728584           
         O7        1.0000    0.87730   0.04760   0.90810   Biso      1.000     O          -0.84014  
         O8        1.0000    0.03680   0.87670   0.94260   Biso      1.000     O          -0.903988           
         O9        1.0000    0.31420   0.01740   0.95352   Biso      1.000     O          -0.976901           
         O10       1.0000    0.50520   0.81510   0.14210   Biso      1.000     O          -0.628588           
         O11       1.0000    0.70080   0.74440   0.07060   Biso      1.000     O          -0.728584           
         O12       1.0000    0.49480   0.18490   0.85790   Biso      1.000     O          -0.628588           
         O13       1.0000    0.29920   0.25560   0.92940   Biso      1.000     O          -0.728584           
         O14       1.0000    0.31420   0.48260   0.45352   Biso      1.000     O          -0.9769   
         O15       1.0000    0.49480   0.31510   0.35790   Biso      1.000     O          -0.628588           
         O16       1.0000    0.29920   0.24440   0.42940   Biso      1.000     O          -0.728584           
         O17       1.0000    0.12270   0.95240   0.09190   Biso      1.000     O          -0.84014  
         O18       1.0000    0.96320   0.12330   0.05740   Biso      1.000     O          -0.903987           
         O19       1.0000    0.68580   0.98260   0.04648   Biso      1.000     O          -0.976901           
         O20       1.0000    0.87730   0.45240   0.40810   Biso      1.000     O          -0.84014  
         P1        1.0000    0.91220   0.02307   0.08680   Biso      1.000     P          1.405932  
         P2        1.0000    0.08780   0.52307   0.41320   Biso      1.000     P          1.405932  
         P3        1.0000    0.08780   0.97693   0.91320   Biso      1.000     P          1.405932  
         P4        1.0000    0.91220   0.47693   0.58680   Biso      1.000     P          1.405932 