
##########################################################################
#               Crystallographic Information Format file
#               Produced by PyCifRW module
#
#  This is a CIF file.  CIF has been adopted by the International
#  Union of Crystallography as the standard for data archiving and
#  transmission.
#
#  For information on this file format, follow the CIF links at
#  http://www.iucr.org
##########################################################################

data_image0

_cell_length_a                          5.5234
_cell_length_b                          13.349
_cell_length_c                          20.586
_cell_angle_alpha                       90
_cell_angle_beta                        95.29
_cell_angle_gamma                       90
_symmetry_space_group_name_H-M          'P 1'
_symmetry_int_tables_number             1
loop_
  _symmetry_equiv_pos_as_xyz
         'x, y, z' 
loop_
  _atom_site_label
  _atom_site_occupancy
  _atom_site_fract_x
  _atom_site_fract_y
  _atom_site_fract_z
  _atom_site_thermal_displace_type
  _atom_site_B_iso_or_equiv
  _atom_site_type_symbol
  _atom_site_charge
         C1        1.0000    0.90330   0.61070   0.16510   Biso      1.000     C          -0.215096           
         C2        1.0000    0.81110   0.03690   0.16660   Biso      1.000     C          -0.434346           
         C3        1.0000    0.91000   0.06960   0.28300   Biso      1.000     C          -0.098858           
         C4        1.0000    0.09670   0.11070   0.33490   Biso      1.000     C          -0.215096           
         C5        1.0000    0.14420   0.22160   0.32320   Biso      1.000     C          -0.113882           
         C6        1.0000    0.21570   0.23600   0.25470   Biso      1.000     C          -0.218609           
         C7        1.0000    0.03280   0.19040   0.20400   Biso      1.000     C          -0.111824           
         C8        1.0000    0.32790   0.26620   0.37490   Biso      1.000     C          0.620318  
         C9        1.0000    0.18890   0.53690   0.33340   Biso      1.000     C          -0.434346           
         C10       1.0000    0.09000   0.56960   0.21700   Biso      1.000     C          -0.098858           
         C11       1.0000    0.85580   0.72160   0.17680   Biso      1.000     C          -0.113882           
         C12       1.0000    0.78430   0.73600   0.24530   Biso      1.000     C          -0.218609           
         C13       1.0000    0.96720   0.69040   0.29600   Biso      1.000     C          -0.111825           
         C14       1.0000    0.18890   0.96310   0.83340   Biso      1.000     C          -0.434346           
         C15       1.0000    0.67210   0.76620   0.12510   Biso      1.000     C          0.620318  
         C16       1.0000    0.91000   0.43040   0.78300   Biso      1.000     C          -0.098858           
         C17       1.0000    0.90330   0.88930   0.66510   Biso      1.000     C          -0.215096           
         C18       1.0000    0.85580   0.77840   0.67680   Biso      1.000     C          -0.113882           
         C19       1.0000    0.78430   0.76400   0.74530   Biso      1.000     C          -0.218609           
         C20       1.0000    0.96720   0.80960   0.79600   Biso      1.000     C          -0.111824           
         C21       1.0000    0.67210   0.73380   0.62510   Biso      1.000     C          0.620318  
         C22       1.0000    0.81110   0.46310   0.66660   Biso      1.000     C          -0.434346           
         C23       1.0000    0.09000   0.93040   0.71700   Biso      1.000     C          -0.098858           
         C24       1.0000    0.09670   0.38930   0.83490   Biso      1.000     C          -0.215096           
         C25       1.0000    0.14420   0.27840   0.82320   Biso      1.000     C          -0.113882           
         C26       1.0000    0.21570   0.26400   0.75470   Biso      1.000     C          -0.218609           
         C27       1.0000    0.03280   0.30960   0.70400   Biso      1.000     C          -0.111824           
         C28       1.0000    0.32790   0.23380   0.87490   Biso      1.000     C          0.620318  
         H1        1.0000    0.75660   0.39590   0.78540   Biso      1.000     H          0.073449  
         H2        1.0000    0.03830   0.39790   0.87750   Biso      1.000     H          0.110256  
         H3        1.0000    0.66640   0.42160   0.66320   Biso      1.000     H          0.129955  
         H4        1.0000    0.24740   0.42650   0.83420   Biso      1.000     H          0.10324   
         H5        1.0000    0.87980   0.27390   0.70400   Biso      1.000     H          0.075529  
         H6        1.0000    0.23020   0.19290   0.74610   Biso      1.000     H          0.110082  
         H7        1.0000    0.37350   0.29440   0.75130   Biso      1.000     H          0.093222  
         H8        1.0000    0.09070   0.30180   0.66120   Biso      1.000     H          0.105293  
         H9        1.0000    0.76520   0.52820   0.68260   Biso      1.000     H          0.164071  
         H10       1.0000    0.99020   0.24290   0.82600   Biso      1.000     H          0.106747  
         H11       1.0000    0.12020   0.77390   0.79600   Biso      1.000     H          0.075529  
         H12       1.0000    0.88400   0.50100   0.79110   Biso      1.000     H          0.100478  
         H13       1.0000    0.62650   0.79440   0.74870   Biso      1.000     H          0.093221  
         H14       1.0000    0.24340   0.60410   0.21460   Biso      1.000     H          0.073449  
         H15       1.0000    0.33360   0.57840   0.33680   Biso      1.000     H          0.129955  
         H16       1.0000    0.23480   0.47180   0.31740   Biso      1.000     H          0.164071  
         H17       1.0000    0.87980   0.22610   0.20400   Biso      1.000     H          0.075529  
         H18       1.0000    0.09070   0.19820   0.16120   Biso      1.000     H          0.105293  
         H19       1.0000    0.90930   0.80180   0.83880   Biso      1.000     H          0.105293  
         H20       1.0000    0.11600   0.49900   0.20890   Biso      1.000     H          0.100478  
         H21       1.0000    0.23020   0.30710   0.24610   Biso      1.000     H          0.110082  
         H22       1.0000    0.24740   0.07350   0.33420   Biso      1.000     H          0.10324   
         H23       1.0000    0.03830   0.10210   0.37750   Biso      1.000     H          0.110256  
         H24       1.0000    0.88400   0.99900   0.29110   Biso      1.000     H          0.100478  
         H25       1.0000    0.75660   0.10410   0.28540   Biso      1.000     H          0.073449  
         H26       1.0000    0.66640   0.07840   0.16320   Biso      1.000     H          0.129955  
         H27       1.0000    0.76520   0.97180   0.18260   Biso      1.000     H          0.164071  
         H28       1.0000    0.99020   0.25710   0.32600   Biso      1.000     H          0.106747  
         H29       1.0000    0.96170   0.60210   0.12250   Biso      1.000     H          0.110256  
         H30       1.0000    0.37350   0.20560   0.25130   Biso      1.000     H          0.093222  
         H31       1.0000    0.00980   0.75710   0.17400   Biso      1.000     H          0.106747  
         H32       1.0000    0.75260   0.57350   0.16580   Biso      1.000     H          0.10324   
         H33       1.0000    0.76980   0.69290   0.75390   Biso      1.000     H          0.110082  
         H34       1.0000    0.00980   0.74290   0.67400   Biso      1.000     H          0.106747  
         H35       1.0000    0.75260   0.92650   0.66580   Biso      1.000     H          0.10324   
         H36       1.0000    0.11600   0.00100   0.70890   Biso      1.000     H          0.100479  
         H37       1.0000    0.24340   0.89590   0.71460   Biso      1.000     H          0.073449  
         H38       1.0000    0.96170   0.89790   0.62250   Biso      1.000     H          0.110256  
         H39       1.0000    0.23480   0.02820   0.81740   Biso      1.000     H          0.164071  
         H40       1.0000    0.12020   0.72610   0.29600   Biso      1.000     H          0.075529  
         H41       1.0000    0.90930   0.69820   0.33880   Biso      1.000     H          0.105293  
         H42       1.0000    0.62650   0.70560   0.24870   Biso      1.000     H          0.093222  
         H43       1.0000    0.76980   0.80710   0.25390   Biso      1.000     H          0.110082  
         H44       1.0000    0.33360   0.92160   0.83680   Biso      1.000     H          0.129955  
         N1        1.0000    0.00850   0.58250   0.28360   Biso      1.000     N          -0.106021           
         N2        1.0000    0.99150   0.41750   0.71640   Biso      1.000     N          -0.106021           
         N3        1.0000    0.00850   0.91750   0.78360   Biso      1.000     N          -0.106021           
         N4        1.0000    0.99150   0.08250   0.21640   Biso      1.000     N          -0.106021           
         O1        1.0000    0.69730   0.74880   0.06580   Biso      1.000     O          -0.67266  
         O2        1.0000    0.87740   0.45040   0.40930   Biso      1.000     O          -0.800652           
         O3        1.0000    0.50490   0.82100   0.14060   Biso      1.000     O          -0.59232  
         O4        1.0000    0.04250   0.87810   0.94590   Biso      1.000     O          -0.850392           
         O5        1.0000    0.95750   0.37810   0.55410   Biso      1.000     O          -0.850392           
         O6        1.0000    0.67980   0.52010   0.54550   Biso      1.000     O          -0.894977           
         O7        1.0000    0.50490   0.67900   0.64060   Biso      1.000     O          -0.59232  
         O8        1.0000    0.69730   0.75120   0.56580   Biso      1.000     O          -0.67266  
         O9        1.0000    0.87740   0.04960   0.90930   Biso      1.000     O          -0.800652           
         O10       1.0000    0.04250   0.62190   0.44590   Biso      1.000     O          -0.850392           
         O11       1.0000    0.32020   0.02010   0.95450   Biso      1.000     O          -0.894977           
         O12       1.0000    0.12260   0.54960   0.59070   Biso      1.000     O          -0.800652           
         O13       1.0000    0.32020   0.47990   0.45450   Biso      1.000     O          -0.894977           
         O14       1.0000    0.49510   0.17900   0.85940   Biso      1.000     O          -0.59232  
         O15       1.0000    0.30270   0.24880   0.43420   Biso      1.000     O          -0.67266  
         O16       1.0000    0.12260   0.95040   0.09070   Biso      1.000     O          -0.800652           
         O17       1.0000    0.95750   0.12190   0.05410   Biso      1.000     O          -0.850392           
         O18       1.0000    0.67980   0.97990   0.04550   Biso      1.000     O          -0.894977           
         O19       1.0000    0.30270   0.25120   0.93420   Biso      1.000     O          -0.67266  
         O20       1.0000    0.49510   0.32100   0.35940   Biso      1.000     O          -0.59232  
         P1        1.0000    0.90840   0.47953   0.58510   Biso      1.000     P          1.388203  
         P2        1.0000    0.09160   0.97953   0.91490   Biso      1.000     P          1.388203  
         P3        1.0000    0.09160   0.52047   0.41490   Biso      1.000     P          1.388203  
         P4        1.0000    0.90840   0.02047   0.08510   Biso      1.000     P          1.388203  
         Y1        1.0000    0.62640   0.36825   0.47210   Biso      1.000     Y          1.928796  
         Y2        1.0000    0.37360   0.86825   0.02790   Biso      1.000     Y          1.928796  
         Y3        1.0000    0.37360   0.63175   0.52790   Biso      1.000     Y          1.928796  
         Y4        1.0000    0.62640   0.13175   0.97210   Biso      1.000     Y          1.928795 