
##########################################################################
#               Crystallographic Information Format file
#               Produced by PyCifRW module
#
#  This is a CIF file.  CIF has been adopted by the International
#  Union of Crystallography as the standard for data archiving and
#  transmission.
#
#  For information on this file format, follow the CIF links at
#  http://www.iucr.org
##########################################################################

data_image0

_cell_length_a                          5.5313
_cell_length_b                          13.396
_cell_length_c                          20.934
_cell_angle_alpha                       90
_cell_angle_beta                        96.177
_cell_angle_gamma                       90
_symmetry_space_group_name_H-M          'P 1'
_symmetry_int_tables_number             1
loop_
  _symmetry_equiv_pos_as_xyz
         'x, y, z' 
loop_
  _atom_site_label
  _atom_site_occupancy
  _atom_site_fract_x
  _atom_site_fract_y
  _atom_site_fract_z
  _atom_site_thermal_displace_type
  _atom_site_B_iso_or_equiv
  _atom_site_type_symbol
  _atom_site_charge
         C1        1.0000    0.78900   0.73440   0.24610   Biso      1.000     C          -0.223095           
         C2        1.0000    0.32600   0.26300   0.37340   Biso      1.000     C          0.586671  
         C3        1.0000    0.18200   0.53660   0.33330   Biso      1.000     C          -0.444495           
         C4        1.0000    0.08200   0.56600   0.22000   Biso      1.000     C          -0.107188           
         C5        1.0000    0.90400   0.60760   0.16930   Biso      1.000     C          -0.216845           
         C6        1.0000    0.85700   0.71790   0.17830   Biso      1.000     C          -0.117821           
         C7        1.0000    0.14300   0.21790   0.32170   Biso      1.000     C          -0.117819           
         C8        1.0000    0.97600   0.68770   0.29560   Biso      1.000     C          -0.124354           
         C9        1.0000    0.67400   0.76300   0.12660   Biso      1.000     C          0.586672  
         C10       1.0000    0.18200   0.96340   0.83330   Biso      1.000     C          -0.444497           
         C11       1.0000    0.08200   0.93400   0.72000   Biso      1.000     C          -0.107191           
         C12       1.0000    0.90400   0.89240   0.66930   Biso      1.000     C          -0.216843           
         C13       1.0000    0.85700   0.78210   0.67830   Biso      1.000     C          -0.117821           
         C14       1.0000    0.78900   0.76560   0.74610   Biso      1.000     C          -0.223098           
         C15       1.0000    0.97600   0.81230   0.79560   Biso      1.000     C          -0.124357           
         C16       1.0000    0.67400   0.73700   0.62660   Biso      1.000     C          0.586673  
         C17       1.0000    0.81800   0.46340   0.66670   Biso      1.000     C          -0.444498           
         C18       1.0000    0.91800   0.43400   0.78000   Biso      1.000     C          -0.107192           
         C19       1.0000    0.09600   0.39240   0.83070   Biso      1.000     C          -0.216843           
         C20       1.0000    0.14300   0.28210   0.82170   Biso      1.000     C          -0.117823           
         C21       1.0000    0.21100   0.26560   0.75390   Biso      1.000     C          -0.223093           
         C22       1.0000    0.02400   0.31230   0.70440   Biso      1.000     C          -0.124358           
         C23       1.0000    0.32600   0.23700   0.87340   Biso      1.000     C          0.586673  
         C24       1.0000    0.09600   0.10760   0.33070   Biso      1.000     C          -0.216843           
         C25       1.0000    0.91800   0.06600   0.28000   Biso      1.000     C          -0.107187           
         C26       1.0000    0.81800   0.03660   0.16670   Biso      1.000     C          -0.444496           
         C27       1.0000    0.02400   0.18770   0.20440   Biso      1.000     C          -0.124353           
         C28       1.0000    0.21100   0.23440   0.25390   Biso      1.000     C          -0.223098           
         Eu1       1.0000    0.62677   0.13215   0.97237   Biso      1.000     Eu          1.437195  
         Eu2       1.0000    0.62677   0.36785   0.47237   Biso      1.000     Eu          1.437194  
         Eu3       1.0000    0.37323   0.86785   0.02763   Biso      1.000     Eu          1.437199  
         Eu4       1.0000    0.37323   0.63215   0.52763   Biso      1.000     Eu          1.437197  
         H1        1.0000    0.07310   0.30180   0.66180   Biso      1.000     H          0.119424  
         H2        1.0000    0.22160   0.19460   0.74570   Biso      1.000     H          0.11307   
         H3        1.0000    0.36930   0.29490   0.75020   Biso      1.000     H          0.094946  
         H4        1.0000    0.98770   0.24760   0.82440   Biso      1.000     H          0.105837  
         H5        1.0000    0.24850   0.42840   0.83080   Biso      1.000     H          0.1057    
         H6        1.0000    0.03700   0.40250   0.87220   Biso      1.000     H          0.122976  
         H7        1.0000    0.89610   0.50470   0.78780   Biso      1.000     H          0.108538  
         H8        1.0000    0.76210   0.40130   0.78160   Biso      1.000     H          0.095628  
         H9        1.0000    0.67410   0.42160   0.66350   Biso      1.000     H          0.154563  
         H10       1.0000    0.86830   0.27980   0.70630   Biso      1.000     H          0.100982  
         H11       1.0000    0.13170   0.77980   0.79370   Biso      1.000     H          0.100982  
         H12       1.0000    0.23790   0.59870   0.21840   Biso      1.000     H          0.095626  
         H13       1.0000    0.32590   0.57840   0.33650   Biso      1.000     H          0.154561  
         H14       1.0000    0.22820   0.47150   0.31840   Biso      1.000     H          0.162145  
         H15       1.0000    0.86830   0.22020   0.20630   Biso      1.000     H          0.10098   
         H16       1.0000    0.07310   0.19820   0.16180   Biso      1.000     H          0.119425  
         H17       1.0000    0.22160   0.30540   0.24570   Biso      1.000     H          0.113072  
         H18       1.0000    0.10390   0.49530   0.21220   Biso      1.000     H          0.10854   
         H19       1.0000    0.36930   0.20510   0.25020   Biso      1.000     H          0.094946  
         H20       1.0000    0.24850   0.07160   0.33080   Biso      1.000     H          0.105701  
         H21       1.0000    0.03700   0.09750   0.37220   Biso      1.000     H          0.122978  
         H22       1.0000    0.77180   0.52850   0.68160   Biso      1.000     H          0.162145  
         H23       1.0000    0.76210   0.09870   0.28160   Biso      1.000     H          0.095625  
         H24       1.0000    0.67410   0.07840   0.16350   Biso      1.000     H          0.15456   
         H25       1.0000    0.77180   0.97150   0.18160   Biso      1.000     H          0.162147  
         H26       1.0000    0.98770   0.25240   0.32440   Biso      1.000     H          0.105837  
         H27       1.0000    0.96300   0.59750   0.12780   Biso      1.000     H          0.122978  
         H28       1.0000    0.89610   0.99530   0.28780   Biso      1.000     H          0.10854   
         H29       1.0000    0.01230   0.75240   0.17560   Biso      1.000     H          0.105838  
         H30       1.0000    0.92690   0.80180   0.83820   Biso      1.000     H          0.119425  
         H31       1.0000    0.77840   0.69460   0.75430   Biso      1.000     H          0.113072  
         H32       1.0000    0.63070   0.79490   0.74980   Biso      1.000     H          0.094948  
         H33       1.0000    0.01230   0.74760   0.67560   Biso      1.000     H          0.105838  
         H34       1.0000    0.75150   0.92840   0.66920   Biso      1.000     H          0.105701  
         H35       1.0000    0.96300   0.90250   0.62780   Biso      1.000     H          0.122977  
         H36       1.0000    0.75150   0.57160   0.16920   Biso      1.000     H          0.105702  
         H37       1.0000    0.10390   0.00470   0.71220   Biso      1.000     H          0.10854   
         H38       1.0000    0.32590   0.92160   0.83650   Biso      1.000     H          0.154562  
         H39       1.0000    0.22820   0.02850   0.81840   Biso      1.000     H          0.162145  
         H40       1.0000    0.13170   0.72020   0.29370   Biso      1.000     H          0.10098   
         H41       1.0000    0.92690   0.69820   0.33820   Biso      1.000     H          0.119424  
         H42       1.0000    0.77840   0.80540   0.25430   Biso      1.000     H          0.113072  
         H43       1.0000    0.63070   0.70510   0.24980   Biso      1.000     H          0.094946  
         H44       1.0000    0.23790   0.90130   0.71840   Biso      1.000     H          0.095627  
         N1        1.0000    0.99800   0.42030   0.71570   Biso      1.000     N          0.056395  
         N2        1.0000    0.00200   0.92030   0.78430   Biso      1.000     N          0.056387  
         N3        1.0000    0.99800   0.07970   0.21570   Biso      1.000     N          0.056369  
         N4        1.0000    0.00200   0.57970   0.28430   Biso      1.000     N          0.056381  
         O1        1.0000    0.87330   0.45310   0.41000   Biso      1.000     O          -0.721054           
         O2        1.0000    0.12670   0.54690   0.59000   Biso      1.000     O          -0.721054           
         O3        1.0000    0.96130   0.37800   0.55720   Biso      1.000     O          -0.76663  
         O4        1.0000    0.68350   0.51770   0.54550   Biso      1.000     O          -0.80361  
         O5        1.0000    0.50270   0.68350   0.64020   Biso      1.000     O          -0.565235           
         O6        1.0000    0.70350   0.75360   0.56760   Biso      1.000     O          -0.585099           
         O7        1.0000    0.87330   0.04690   0.91000   Biso      1.000     O          -0.721055           
         O8        1.0000    0.03870   0.87800   0.94280   Biso      1.000     O          -0.766633           
         O9        1.0000    0.31650   0.01770   0.95450   Biso      1.000     O          -0.803609           
         O10       1.0000    0.50270   0.81650   0.14020   Biso      1.000     O          -0.565232           
         O11       1.0000    0.70350   0.74640   0.06760   Biso      1.000     O          -0.585091           
         O12       1.0000    0.49730   0.18350   0.85980   Biso      1.000     O          -0.565231           
         O13       1.0000    0.03870   0.62200   0.44280   Biso      1.000     O          -0.766629           
         O14       1.0000    0.31650   0.48230   0.45450   Biso      1.000     O          -0.803611           
         O15       1.0000    0.49730   0.31650   0.35980   Biso      1.000     O          -0.56523  
         O16       1.0000    0.29650   0.24640   0.43240   Biso      1.000     O          -0.585089           
         O17       1.0000    0.12670   0.95310   0.09000   Biso      1.000     O          -0.721057           
         O18       1.0000    0.96130   0.12200   0.05720   Biso      1.000     O          -0.76663  
         O19       1.0000    0.68350   0.98230   0.04550   Biso      1.000     O          -0.803608           
         O20       1.0000    0.29650   0.25360   0.93240   Biso      1.000     O          -0.585092           
         P1        1.0000    0.91310   0.47770   0.58659   Biso      1.000     P          1.311359  
         P2        1.0000    0.08690   0.97770   0.91341   Biso      1.000     P          1.311358  
         P3        1.0000    0.91310   0.02230   0.08659   Biso      1.000     P          1.311358  
         P4        1.0000    0.08690   0.52230   0.41341   Biso      1.000     P          1.311358 