
##########################################################################
#               Crystallographic Information Format file
#               Produced by PyCifRW module
#
#  This is a CIF file.  CIF has been adopted by the International
#  Union of Crystallography as the standard for data archiving and
#  transmission.
#
#  For information on this file format, follow the CIF links at
#  http://www.iucr.org
##########################################################################

data_image0

_cell_length_a                          8.618
_cell_length_b                          11.028
_cell_length_c                          11.126
_cell_angle_alpha                       64.06
_cell_angle_beta                        80.57
_cell_angle_gamma                       73.21
_symmetry_space_group_name_H-M          'P 1'
_symmetry_int_tables_number             1
loop_
  _symmetry_equiv_pos_as_xyz
         'x, y, z' 
loop_
  _atom_site_label
  _atom_site_occupancy
  _atom_site_fract_x
  _atom_site_fract_y
  _atom_site_fract_z
  _atom_site_thermal_displace_type
  _atom_site_B_iso_or_equiv
  _atom_site_type_symbol
  _atom_site_charge
         C1        1.0000    0.85960   0.60480   0.16730   Biso      1.000     C          0.721895  
         C2        1.0000    0.49670   0.85000   0.44060   Biso      1.000     C          -0.252179           
         C3        1.0000    0.56200   0.93640   0.32060   Biso      1.000     C          0.190902  
         C4        1.0000    0.69560   0.87680   0.25980   Biso      1.000     C          -0.236652           
         C5        1.0000    0.90830   0.67150   0.24370   Biso      1.000     C          -0.406831           
         C6        1.0000    0.51550   0.91010   0.74210   Biso      1.000     C          -0.416013           
         C7        1.0000    0.48900   0.61690   0.62620   Biso      1.000     C          -0.400107           
         C8        1.0000    0.58170   0.57260   0.74950   Biso      1.000     C          0.706123  
         C9        1.0000    0.48450   0.08990   0.25790   Biso      1.000     C          -0.416012           
         C10       1.0000    0.35000   0.13220   0.16310   Biso      1.000     C          0.705199  
         C11       1.0000    0.23390   0.26500   0.68490   Biso      1.000     C          0.17465799999999998           
         C12       1.0000    0.30110   0.35030   0.56480   Biso      1.000     C          -0.246995           
         C13       1.0000    0.43610   0.29300   0.50260   Biso      1.000     C          0.169517  
         C14       1.0000    0.50330   0.15000   0.55940   Biso      1.000     C          -0.252177           
         C15       1.0000    0.43800   0.06360   0.67940   Biso      1.000     C          0.190902  
         C16       1.0000    0.30440   0.12320   0.74020   Biso      1.000     C          -0.23665  
         C17       1.0000    0.09170   0.32850   0.75630   Biso      1.000     C          -0.406831           
         C18       1.0000    0.14040   0.39520   0.83270   Biso      1.000     C          0.721896  
         C19       1.0000    0.56390   0.70700   0.49740   Biso      1.000     C          0.169519  
         C20       1.0000    0.69890   0.64970   0.43520   Biso      1.000     C          -0.24699699999999997          
         C21       1.0000    0.76610   0.73500   0.31510   Biso      1.000     C          0.17466199999999998           
         C22       1.0000    0.41830   0.42740   0.25050   Biso      1.000     C          0.706123  
         C23       1.0000    0.65000   0.86780   0.83690   Biso      1.000     C          0.705199  
         C24       1.0000    0.51100   0.38310   0.37380   Biso      1.000     C          -0.400104           
         H1        1.0000    0.74590   0.55240   0.47410   Biso      1.000     H          0.124476  
         H2        1.0000    0.40520   0.88940   0.48390   Biso      1.000     H          0.121849  
         H3        1.0000    0.74040   0.93450   0.17800   Biso      1.000     H          0.125603  
         H4        1.0000    0.98770   0.60040   0.31040   Biso      1.000     H          0.165021  
         H5        1.0000    0.96260   0.74490   0.18080   Biso      1.000     H          0.15839   
         H6        1.0000    0.37710   0.66840   0.63840   Biso      1.000     H          0.14027   
         H7        1.0000    0.48210   0.53250   0.61850   Biso      1.000     H          0.168311  
         H8        1.0000    0.43020   0.86060   0.79220   Biso      1.000     H          0.12456500000000001           
         H9        1.0000    0.25410   0.44760   0.52590   Biso      1.000     H          0.124477  
         H10       1.0000    0.59480   0.11060   0.51610   Biso      1.000     H          0.121849  
         H11       1.0000    0.25960   0.06550   0.82200   Biso      1.000     H          0.125603  
         H12       1.0000    0.01230   0.39960   0.68960   Biso      1.000     H          0.165021  
         H13       1.0000    0.03740   0.25510   0.81920   Biso      1.000     H          0.15839   
         H14       1.0000    0.62290   0.33160   0.36160   Biso      1.000     H          0.14027   
         H15       1.0000    0.51790   0.46750   0.38150   Biso      1.000     H          0.168311  
         H16       1.0000    0.56100   0.87880   0.66990   Biso      1.000     H          0.141322  
         H17       1.0000    0.56980   0.13940   0.20780   Biso      1.000     H          0.12456500000000001           
         H18       1.0000    0.43900   0.12120   0.33010   Biso      1.000     H          0.141322  
         La1       1.0000    0.75348   0.49366   0.99858   Biso      1.000     La          1.9303259999999998  
         La2       1.0000    0.24652   0.50634   0.00142   Biso      1.000     La          1.9303270000000001  
         O1        1.0000    0.71920   0.59100   0.17700   Biso      1.000     O          -0.566415           
         O2        1.0000    0.96810   0.56220   0.09130   Biso      1.000     O          -0.747166           
         O3        1.0000    0.50220   0.54840   0.86290   Biso      1.000     O          -0.752996           
         O4        1.0000    0.73120   0.55790   0.74360   Biso      1.000     O          -0.566941           
         O5        1.0000    0.27780   0.25980   0.11810   Biso      1.000     O          -0.711498           
         O6        1.0000    0.31660   0.04580   0.13610   Biso      1.000     O          -0.564641           
         O7        1.0000    0.28080   0.40900   0.82300   Biso      1.000     O          -0.566415           
         O8        1.0000    0.03190   0.43780   0.90870   Biso      1.000     O          -0.747167           
         O9        1.0000    0.49780   0.45160   0.13710   Biso      1.000     O          -0.752995           
         O10       1.0000    0.26880   0.44210   0.25640   Biso      1.000     O          -0.566941           
         O11       1.0000    0.72220   0.74020   0.88190   Biso      1.000     O          -0.711499           
         O12       1.0000    0.68340   0.95420   0.86390   Biso      1.000     O          -0.564641 