
##########################################################################
#               Crystallographic Information Format file
#               Produced by PyCifRW module
#
#  This is a CIF file.  CIF has been adopted by the International
#  Union of Crystallography as the standard for data archiving and
#  transmission.
#
#  For information on this file format, follow the CIF links at
#  http://www.iucr.org
##########################################################################

data_image0

_cell_length_a                          11.857
_cell_length_b                          12.554
_cell_length_c                          12.515
_cell_angle_alpha                       119.12
_cell_angle_beta                        98.44
_cell_angle_gamma                       108.27
_symmetry_space_group_name_H-M          'P 1'
_symmetry_int_tables_number             1
loop_
  _symmetry_equiv_pos_as_xyz
         'x, y, z' 
loop_
  _atom_site_label
  _atom_site_occupancy
  _atom_site_fract_x
  _atom_site_fract_y
  _atom_site_fract_z
  _atom_site_thermal_displace_type
  _atom_site_B_iso_or_equiv
  _atom_site_type_symbol
  _atom_site_charge
         C1        1.0000    0.04320   0.40410   0.75400   Biso      1.000     C          0.663125  
         C2        1.0000    0.08110   0.26810   0.14760   Biso      1.000     C          0.17968299999999998           
         C3        1.0000    0.15930   0.23330   0.07820   Biso      1.000     C          -0.24054299999999998          
         C4        1.0000    0.29100   0.31100   0.13540   Biso      1.000     C          0.17585599999999998           
         C5        1.0000    0.34380   0.42770   0.26360   Biso      1.000     C          -0.240713           
         C6        1.0000    0.26650   0.46680   0.33320   Biso      1.000     C          0.173148  
         C7        1.0000    0.16810   0.49610   0.76340   Biso      1.000     C          -0.38506  
         C8        1.0000    0.13540   0.38620   0.27470   Biso      1.000     C          -0.250231           
         C9        1.0000    0.49640   0.20590   0.79350   Biso      1.000     C          0.6923199999999999  
         C10       1.0000    0.21810   0.03450   0.30780   Biso      1.000     C          0.68371   
         C11       1.0000    0.24130   0.18060   0.36520   Biso      1.000     C          -0.393759           
         C12       1.0000    0.21190   0.34070   0.56990   Biso      1.000     C          -0.249158           
         C13       1.0000    0.23870   0.41300   0.70430   Biso      1.000     C          0.186342  
         C14       1.0000    0.32700   0.40450   0.78250   Biso      1.000     C          -0.25399  
         C15       1.0000    0.39210   0.32900   0.72910   Biso      1.000     C          0.185452  
         C16       1.0000    0.50110   0.33830   0.81820   Biso      1.000     C          -0.399043           
         C17       1.0000    0.36330   0.25590   0.59360   Biso      1.000     C          -0.24423000000000003          
         C18       1.0000    0.32680   0.59740   0.47020   Biso      1.000     C          -0.420187           
         C19       1.0000    0.37620   0.26640   0.06280   Biso      1.000     C          -0.40188  
         C20       1.0000    0.83190   0.50390   0.23660   Biso      1.000     C          -0.38506  
         C21       1.0000    0.50360   0.79410   0.20650   Biso      1.000     C          0.6923199999999999  
         C22       1.0000    0.49890   0.66170   0.18180   Biso      1.000     C          -0.399043           
         C23       1.0000    0.78190   0.96550   0.69220   Biso      1.000     C          0.683711  
         C24       1.0000    0.75870   0.81940   0.63480   Biso      1.000     C          -0.393759           
         C25       1.0000    0.78810   0.65930   0.43010   Biso      1.000     C          -0.249158           
         C26       1.0000    0.35700   0.72550   0.47310   Biso      1.000     C          0.739115  
         C27       1.0000    0.76130   0.58700   0.29570   Biso      1.000     C          0.186342  
         C28       1.0000    0.60790   0.67100   0.27090   Biso      1.000     C          0.185451  
         C29       1.0000    0.63670   0.74410   0.40640   Biso      1.000     C          -0.24423000000000003          
         C30       1.0000    0.72780   0.74060   0.48730   Biso      1.000     C          0.18681   
         C31       1.0000    0.85010   0.20320   0.01850   Biso      1.000     C          0.717332  
         C32       1.0000    0.93980   0.17490   0.08880   Biso      1.000     C          -0.40217600000000003          
         C33       1.0000    0.42800   0.18810   0.09990   Biso      1.000     C          0.704082  
         C34       1.0000    0.67300   0.59550   0.21750   Biso      1.000     C          -0.25399  
         C35       1.0000    0.27220   0.25940   0.51270   Biso      1.000     C          0.18681   
         C36       1.0000    0.95680   0.59590   0.24600   Biso      1.000     C          0.663125  
         C37       1.0000    0.62380   0.73360   0.93720   Biso      1.000     C          -0.40188  
         C38       1.0000    0.65620   0.57230   0.73640   Biso      1.000     C          -0.240713           
         C39       1.0000    0.86460   0.61380   0.72530   Biso      1.000     C          -0.250232           
         C40       1.0000    0.64300   0.27450   0.52690   Biso      1.000     C          0.739117  
         C41       1.0000    0.67320   0.40260   0.52980   Biso      1.000     C          -0.420188           
         C42       1.0000    0.70900   0.68900   0.86460   Biso      1.000     C          0.17585499999999998           
         C43       1.0000    0.84070   0.76670   0.92180   Biso      1.000     C          -0.24054299999999998          
         C44       1.0000    0.73350   0.53320   0.66680   Biso      1.000     C          0.17315   
         C45       1.0000    0.57200   0.81190   0.90010   Biso      1.000     C          0.704082  
         C46       1.0000    0.06020   0.82510   0.91120   Biso      1.000     C          -0.40217600000000003          
         C47       1.0000    0.91890   0.73190   0.85240   Biso      1.000     C          0.17968399999999998           
         C48       1.0000    0.14990   0.79680   0.98150   Biso      1.000     C          0.717332  
         H1        1.0000    0.87750   0.84470   0.00970   Biso      1.000     H          0.12743   
         H2        1.0000    0.08220   0.41200   0.32180   Biso      1.000     H          0.12456300000000001           
         H3        1.0000    0.56640   0.51900   0.69620   Biso      1.000     H          0.12040899999999999           
         H4        1.0000    0.40660   0.60460   0.51720   Biso      1.000     H          0.15962   
         H5        1.0000    0.26840   0.59180   0.51830   Biso      1.000     H          0.154686  
         H6        1.0000    0.12250   0.15530   0.99030   Biso      1.000     H          0.127431  
         H7        1.0000    0.08720   0.82420   0.83970   Biso      1.000     H          0.14768599999999998           
         H8        1.0000    0.44820   0.34780   0.08250   Biso      1.000     H          0.151376  
         H9        1.0000    0.92730   0.08120   0.02600   Biso      1.000     H          0.150024  
         H10       1.0000    0.91280   0.17580   0.16030   Biso      1.000     H          0.14768699999999998           
         H11       1.0000    0.59360   0.79690   0.44390   Biso      1.000     H          0.12396900000000001           
         H12       1.0000    0.65690   0.54890   0.12610   Biso      1.000     H          0.12084400000000001           
         H13       1.0000    0.84800   0.65350   0.48390   Biso      1.000     H          0.12417   
         H14       1.0000    0.83550   0.81850   0.67720   Biso      1.000     H          0.149279  
         H15       1.0000    0.68710   0.77420   0.65340   Biso      1.000     H          0.152599  
         H16       1.0000    0.49370   0.60440   0.09050   Biso      1.000     H          0.144532  
         H17       1.0000    0.41900   0.61350   0.18830   Biso      1.000     H          0.143861  
         H18       1.0000    0.77960   0.42910   0.14360   Biso      1.000     H          0.148079  
         H19       1.0000    0.32730   0.20830   0.96730   Biso      1.000     H          0.16257   
         H20       1.0000    0.91780   0.58800   0.67820   Biso      1.000     H          0.12456300000000001           
         H21       1.0000    0.43360   0.48100   0.30380   Biso      1.000     H          0.12040999999999999           
         H22       1.0000    0.73160   0.40820   0.48170   Biso      1.000     H          0.154686  
         H23       1.0000    0.07270   0.91880   0.97400   Biso      1.000     H          0.150024  
         H24       1.0000    0.40640   0.20310   0.55610   Biso      1.000     H          0.12396900000000001           
         H25       1.0000    0.34310   0.45110   0.87390   Biso      1.000     H          0.12084400000000001           
         H26       1.0000    0.55180   0.65220   0.91750   Biso      1.000     H          0.151376  
         H27       1.0000    0.67270   0.79170   0.03270   Biso      1.000     H          0.16257   
         H28       1.0000    0.15200   0.34650   0.51610   Biso      1.000     H          0.124171  
         H29       1.0000    0.16450   0.18150   0.32280   Biso      1.000     H          0.14928   
         H30       1.0000    0.31290   0.22580   0.34660   Biso      1.000     H          0.152599  
         H31       1.0000    0.50630   0.39560   0.90950   Biso      1.000     H          0.144532  
         H32       1.0000    0.58100   0.38650   0.81170   Biso      1.000     H          0.143861  
         H33       1.0000    0.59340   0.39540   0.48280   Biso      1.000     H          0.15962   
         H34       1.0000    0.22040   0.57090   0.85640   Biso      1.000     H          0.148079  
         H35       1.0000    0.84800   0.46330   0.28450   Biso      1.000     H          0.142653  
         H36       1.0000    0.15200   0.53670   0.71550   Biso      1.000     H          0.142653  
         La1       1.0000    0.80285   0.23593   0.75610   Biso      1.000     La          1.954209  
         La2       1.0000    0.47975   0.01103   0.17795   Biso      1.000     La          1.952363  
         La3       1.0000    0.19715   0.76407   0.24390   Biso      1.000     La          1.954215  
         La4       1.0000    0.52025   0.98897   0.82205   Biso      1.000     La          1.952363  
         O1        1.0000    0.95670   0.63180   0.16640   Biso      1.000     O          -0.635541           
         O2        1.0000    0.57440   0.02500   0.53320   Biso      1.000     O          -0.09869  
         O3        1.0000    0.59260   0.16150   0.41580   Biso      1.000     O          -0.663614           
         O4        1.0000    0.60510   0.88910   0.23510   Biso      1.000     O          -0.582588           
         O5        1.0000    0.88410   0.04980   0.70600   Biso      1.000     O          -0.580108           
         O6        1.0000    0.66850   0.28300   0.63228   Biso      1.000     O          -0.614384           
         O7        1.0000    0.57240   0.80200   0.79650   Biso      1.000     O          -0.592069           
         O8        1.0000    0.69500   0.00020   0.72180   Biso      1.000     O          -0.702752           
         O9        1.0000    0.89020   0.27330   0.97570   Biso      1.000     O          -0.622842           
         O10       1.0000    0.52900   0.88670   0.97680   Biso      1.000     O          -0.718866           
         O11       1.0000    0.73340   0.14650   0.00290   Biso      1.000     O          -0.6901649999999999           
         O12       1.0000    0.26660   0.85350   0.99710   Biso      1.000     O          -0.6901649999999999           
         O13       1.0000    0.10980   0.72670   0.02430   Biso      1.000     O          -0.622842           
         O14       1.0000    0.30500   0.99980   0.27820   Biso      1.000     O          -0.702751           
         O15       1.0000    0.11590   0.95020   0.29400   Biso      1.000     O          -0.5801069999999999           
         O16       1.0000    0.42760   0.19800   0.20350   Biso      1.000     O          -0.592069           
         O17       1.0000    0.39490   0.11090   0.76490   Biso      1.000     O          -0.582587           
         O18       1.0000    0.60170   0.19830   0.81240   Biso      1.000     O          -0.724206           
         O19       1.0000    0.94030   0.36090   0.66710   Biso      1.000     O          -0.635104           
         O20       1.0000    0.39830   0.80170   0.18760   Biso      1.000     O          -0.724206           
         O21       1.0000    0.33150   0.71700   0.36772   Biso      1.000     O          -0.614386           
         O22       1.0000    0.04330   0.36820   0.83360   Biso      1.000     O          -0.635541           
         O23       1.0000    0.42560   0.97500   0.46680   Biso      1.000     O          -0.09869700000000001          
         O24       1.0000    0.40740   0.83850   0.58420   Biso      1.000     O          -0.663614           
         O25       1.0000    0.47100   0.11330   0.02320   Biso      1.000     O          -0.718866           
         O26       1.0000    0.05970   0.63910   0.33290   Biso      1.000     O          -0.635104 