
##########################################################################
#               Crystallographic Information Format file
#               Produced by PyCifRW module
#
#  This is a CIF file.  CIF has been adopted by the International
#  Union of Crystallography as the standard for data archiving and
#  transmission.
#
#  For information on this file format, follow the CIF links at
#  http://www.iucr.org
##########################################################################

data_image0

_cell_length_a                          8.582
_cell_length_b                          10.956
_cell_length_c                          11.217
_cell_angle_alpha                       64.17
_cell_angle_beta                        79.98
_cell_angle_gamma                       73.431
_symmetry_space_group_name_H-M          'P 1'
_symmetry_int_tables_number             1
loop_
  _symmetry_equiv_pos_as_xyz
         'x, y, z' 
loop_
  _atom_site_label
  _atom_site_occupancy
  _atom_site_fract_x
  _atom_site_fract_y
  _atom_site_fract_z
  _atom_site_thermal_displace_type
  _atom_site_B_iso_or_equiv
  _atom_site_type_symbol
  _atom_site_charge
         C1        1.0000    0.91640   0.42540   0.24600   Biso      1.000     C          0.688398  
         C2        1.0000    0.00140   0.15000   0.55860   Biso      1.000     C          -0.247298           
         C3        1.0000    0.93370   0.29150   0.50180   Biso      1.000     C          0.16966099999999998           
         C4        1.0000    0.73110   0.26840   0.68450   Biso      1.000     C          0.176066  
         C5        1.0000    0.79900   0.35080   0.56220   Biso      1.000     C          -0.24645999999999998          
         C6        1.0000    0.00620   0.38070   0.36840   Biso      1.000     C          -0.391467           
         C7        1.0000    0.01590   0.90820   0.74570   Biso      1.000     C          -0.419012           
         C8        1.0000    0.15800   0.87430   0.83230   Biso      1.000     C          0.718812  
         C9        1.0000    0.59040   0.33610   0.75050   Biso      1.000     C          -0.397435           
         C10       1.0000    0.64020   0.39790   0.83260   Biso      1.000     C          0.7221890000000001  
         C11       1.0000    0.06630   0.70850   0.49820   Biso      1.000     C          0.169655  
         C12       1.0000    0.99860   0.85000   0.44140   Biso      1.000     C          -0.247292           
         C13       1.0000    0.06700   0.93400   0.31840   Biso      1.000     C          0.17863199999999999           
         C14       1.0000    0.19530   0.87500   0.25700   Biso      1.000     C          -0.232202           
         C15       1.0000    0.26890   0.73160   0.31550   Biso      1.000     C          0.176066  
         C16       1.0000    0.20100   0.64920   0.43780   Biso      1.000     C          -0.246459           
         C17       1.0000    0.99380   0.61930   0.63160   Biso      1.000     C          -0.391466           
         C18       1.0000    0.08360   0.57460   0.75400   Biso      1.000     C          0.688397  
         C19       1.0000    0.98410   0.09180   0.25430   Biso      1.000     C          -0.419012           
         C20       1.0000    0.84200   0.12570   0.16770   Biso      1.000     C          0.718812  
         C21       1.0000    0.40960   0.66390   0.24950   Biso      1.000     C          -0.397435           
         C22       1.0000    0.35980   0.60210   0.16740   Biso      1.000     C          0.72219   
         C23       1.0000    0.93300   0.06600   0.68160   Biso      1.000     C          0.178633  
         C24       1.0000    0.80470   0.12500   0.74300   Biso      1.000     C          -0.232202           
         Ce1       1.0000    0.74800   0.50266   0.00324   Biso      1.000     Ce          2.070014  
         Ce2       1.0000    0.25200   0.49734   0.99676   Biso      1.000     Ce          2.070014  
         H1        1.0000    0.48220   0.58880   0.31810   Biso      1.000     H          0.17131300000000002           
         H2        1.0000    0.09300   0.10910   0.51590   Biso      1.000     H          0.125198  
         H3        1.0000    0.76330   0.06850   0.82740   Biso      1.000     H          0.127631  
         H4        1.0000    0.47230   0.73380   0.19090   Biso      1.000     H          0.15679   
         H5        1.0000    0.11790   0.32820   0.35560   Biso      1.000     H          0.142     
         H6        1.0000    0.01590   0.46600   0.37390   Biso      1.000     H          0.17722000000000002           
         H7        1.0000    0.05820   0.87490   0.67450   Biso      1.000     H          0.139711  
         H8        1.0000    0.93310   0.85670   0.80120   Biso      1.000     H          0.12368499999999999           
         H9        1.0000    0.51780   0.41120   0.68190   Biso      1.000     H          0.17131300000000002           
         H10       1.0000    0.75170   0.44810   0.52100   Biso      1.000     H          0.12542799999999998           
         H11       1.0000    0.90700   0.89090   0.48410   Biso      1.000     H          0.125197  
         H12       1.0000    0.23670   0.93150   0.17260   Biso      1.000     H          0.127631  
         H13       1.0000    0.24830   0.55190   0.47900   Biso      1.000     H          0.12542799999999998           
         H14       1.0000    0.88210   0.67180   0.64440   Biso      1.000     H          0.142     
         H15       1.0000    0.98410   0.53400   0.62610   Biso      1.000     H          0.17722000000000002           
         H16       1.0000    0.94180   0.12510   0.32550   Biso      1.000     H          0.139711  
         H17       1.0000    0.06690   0.14330   0.19880   Biso      1.000     H          0.12368499999999999           
         H18       1.0000    0.52770   0.26620   0.80910   Biso      1.000     H          0.15679   
         O1        1.0000    0.80660   0.03940   0.14610   Biso      1.000     O          -0.545637           
         O2        1.0000    0.77840   0.25650   0.11590   Biso      1.000     O          -0.7607729999999999           
         O3        1.0000    0.00810   0.54310   0.86940   Biso      1.000     O          -0.7709779999999999           
         O4        1.0000    0.24590   0.55250   0.75060   Biso      1.000     O          -0.6113770000000001           
         O5        1.0000    0.52880   0.44320   0.90770   Biso      1.000     O          -0.792451           
         O6        1.0000    0.99190   0.45690   0.13060   Biso      1.000     O          -0.7709779999999999           
         O7        1.0000    0.19340   0.96060   0.85390   Biso      1.000     O          -0.545637           
         O8        1.0000    0.22160   0.74350   0.88410   Biso      1.000     O          -0.760774           
         O9        1.0000    0.75410   0.44750   0.24940   Biso      1.000     O          -0.6113770000000001           
         O10       1.0000    0.21740   0.58440   0.17750   Biso      1.000     O          -0.597658           
         O11       1.0000    0.78260   0.41560   0.82250   Biso      1.000     O          -0.597658           
         O12       1.0000    0.47120   0.55680   0.09230   Biso      1.000     O          -0.792451 