
##########################################################################
#               Crystallographic Information Format file
#               Produced by PyCifRW module
#
#  This is a CIF file.  CIF has been adopted by the International
#  Union of Crystallography as the standard for data archiving and
#  transmission.
#
#  For information on this file format, follow the CIF links at
#  http://www.iucr.org
##########################################################################

data_image0

_cell_length_a                          11.812
_cell_length_b                          12.444
_cell_length_c                          12.522
_cell_angle_alpha                       118.949
_cell_angle_beta                        108.3
_cell_angle_gamma                       98.387
_symmetry_space_group_name_H-M          'P 1'
_symmetry_int_tables_number             1
loop_
  _symmetry_equiv_pos_as_xyz
         'x, y, z' 
loop_
  _atom_site_label
  _atom_site_occupancy
  _atom_site_fract_x
  _atom_site_fract_y
  _atom_site_fract_z
  _atom_site_thermal_displace_type
  _atom_site_B_iso_or_equiv
  _atom_site_type_symbol
  _atom_site_charge
         C1        1.0000    0.16110   0.08090   0.23850   Biso      1.000     C          -0.240245           
         C2        1.0000    0.93860   0.09290   0.17810   Biso      1.000     C          -0.404438           
         C3        1.0000    0.42840   0.10000   0.18770   Biso      1.000     C          0.716224  
         C4        1.0000    0.37380   0.06290   0.26490   Biso      1.000     C          -0.395776           
         C5        1.0000    0.35880   0.47600   0.72660   Biso      1.000     C          0.751594  
         C6        1.0000    0.33110   0.47250   0.59860   Biso      1.000     C          -0.41907  
         C7        1.0000    0.13990   0.27880   0.39170   Biso      1.000     C          -0.250945           
         C8        1.0000    0.08220   0.14990   0.27170   Biso      1.000     C          0.17361500000000002           
         C9        1.0000    0.29160   0.13600   0.31110   Biso      1.000     C          0.17916600000000002           
         C10       1.0000    0.34460   0.26430   0.42890   Biso      1.000     C          -0.240143           
         C11       1.0000    0.84810   0.01870   0.20450   Biso      1.000     C          0.7285010000000001  
         C12       1.0000    0.26980   0.33450   0.46870   Biso      1.000     C          0.17885399999999999           
         C13       1.0000    0.16830   0.76490   0.49620   Biso      1.000     C          -0.38336  
         C14       1.0000    0.21780   0.30890   0.03350   Biso      1.000     C          0.702967  
         C15       1.0000    0.23900   0.36480   0.17770   Biso      1.000     C          -0.398735           
         C16       1.0000    0.39180   0.72760   0.32880   Biso      1.000     C          0.186686  
         C17       1.0000    0.36290   0.59300   0.25660   Biso      1.000     C          -0.250587           
         C18       1.0000    0.27060   0.51260   0.25840   Biso      1.000     C          0.192215  
         C19       1.0000    0.21010   0.56500   0.33810   Biso      1.000     C          -0.249914           
         C20       1.0000    0.23730   0.70390   0.41150   Biso      1.000     C          0.179574  
         C21       1.0000    0.32630   0.78130   0.40230   Biso      1.000     C          -0.253244           
         C22       1.0000    0.04230   0.75410   0.40310   Biso      1.000     C          0.666816  
         C23       1.0000    0.60820   0.27240   0.67120   Biso      1.000     C          0.186686  
         C24       1.0000    0.63710   0.40700   0.74340   Biso      1.000     C          -0.250587           
         C25       1.0000    0.72940   0.48740   0.74160   Biso      1.000     C          0.192215  
         C26       1.0000    0.15190   0.98130   0.79550   Biso      1.000     C          0.7285010000000001  
         C27       1.0000    0.06140   0.90710   0.82190   Biso      1.000     C          -0.404438           
         C28       1.0000    0.57160   0.90000   0.81230   Biso      1.000     C          0.716224  
         C29       1.0000    0.62620   0.93710   0.73510   Biso      1.000     C          -0.395776           
         C30       1.0000    0.64120   0.52400   0.27340   Biso      1.000     C          0.751594  
         C31       1.0000    0.66890   0.52750   0.40140   Biso      1.000     C          -0.41906899999999997          
         C32       1.0000    0.86010   0.72120   0.60830   Biso      1.000     C          -0.250945           
         C33       1.0000    0.91780   0.85010   0.72830   Biso      1.000     C          0.17361400000000002           
         C34       1.0000    0.83890   0.91910   0.76150   Biso      1.000     C          -0.240244           
         C35       1.0000    0.70840   0.86400   0.68890   Biso      1.000     C          0.17916600000000002           
         C36       1.0000    0.65540   0.73570   0.57110   Biso      1.000     C          -0.240143           
         C37       1.0000    0.73020   0.66550   0.53130   Biso      1.000     C          0.17885399999999999           
         C38       1.0000    0.95770   0.24590   0.59690   Biso      1.000     C          0.666816  
         C39       1.0000    0.83170   0.23510   0.50380   Biso      1.000     C          -0.38336  
         C40       1.0000    0.78220   0.69110   0.96650   Biso      1.000     C          0.702967  
         C41       1.0000    0.76100   0.63520   0.82230   Biso      1.000     C          -0.398735           
         C42       1.0000    0.50350   0.20600   0.79420   Biso      1.000     C          0.714526  
         C43       1.0000    0.49840   0.18360   0.66350   Biso      1.000     C          -0.399733           
         C44       1.0000    0.67370   0.21870   0.59770   Biso      1.000     C          -0.253244           
         C45       1.0000    0.76270   0.29610   0.58850   Biso      1.000     C          0.179574  
         C46       1.0000    0.78990   0.43500   0.66190   Biso      1.000     C          -0.249914           
         C47       1.0000    0.50160   0.81640   0.33650   Biso      1.000     C          -0.399733           
         C48       1.0000    0.49650   0.79400   0.20580   Biso      1.000     C          0.714526  
         Ce1       1.0000    0.52169   0.82224   0.99015   Biso      1.000     Ce          2.1105959999999997  
         Ce2       1.0000    0.80270   0.75667   0.23604   Biso      1.000     Ce          2.085276  
         Ce3       1.0000    0.47831   0.17776   0.00985   Biso      1.000     Ce          2.1105959999999997  
         Ce4       1.0000    0.19730   0.24333   0.76396   Biso      1.000     Ce          2.085277  
         H1        1.0000    0.07460   0.96750   0.91650   Biso      1.000     H          0.152897  
         H2        1.0000    0.41200   0.51810   0.60600   Biso      1.000     H          0.159621  
         H3        1.0000    0.27360   0.52180   0.59180   Biso      1.000     H          0.153302  
         H4        1.0000    0.08790   0.32740   0.41930   Biso      1.000     H          0.123957  
         H5        1.0000    0.12340   0.99180   0.16250   Biso      1.000     H          0.125005  
         H6        1.0000    0.43460   0.30350   0.48240   Biso      1.000     H          0.11506199999999998           
         H7        1.0000    0.22080   0.85840   0.56970   Biso      1.000     H          0.14868   
         H8        1.0000    0.15300   0.71810   0.53850   Biso      1.000     H          0.145004  
         H9        1.0000    0.31000   0.34500   0.22290   Biso      1.000     H          0.154665  
         H10       1.0000    0.44520   0.07980   0.34540   Biso      1.000     H          0.15140699999999999           
         H11       1.0000    0.08790   0.83360   0.81730   Biso      1.000     H          0.14698699999999998           
         H12       1.0000    0.50820   0.90840   0.39510   Biso      1.000     H          0.143594  
         H13       1.0000    0.34210   0.87300   0.44760   Biso      1.000     H          0.120426  
         H14       1.0000    0.15130   0.51020   0.34430   Biso      1.000     H          0.12772999999999998           
         H15       1.0000    0.40720   0.55520   0.20500   Biso      1.000     H          0.127565  
         H16       1.0000    0.16110   0.32190   0.17710   Biso      1.000     H          0.151898  
         H17       1.0000    0.32310   0.96750   0.20560   Biso      1.000     H          0.163801  
         H18       1.0000    0.58140   0.80830   0.38320   Biso      1.000     H          0.143225  
         H19       1.0000    0.91210   0.16640   0.18270   Biso      1.000     H          0.14698699999999998           
         H20       1.0000    0.92540   0.03250   0.08350   Biso      1.000     H          0.152897  
         H21       1.0000    0.67690   0.03250   0.79440   Biso      1.000     H          0.163801  
         H22       1.0000    0.55480   0.92020   0.65460   Biso      1.000     H          0.15140699999999999           
         H23       1.0000    0.58800   0.48190   0.39400   Biso      1.000     H          0.159621  
         H24       1.0000    0.91210   0.67260   0.58070   Biso      1.000     H          0.123957  
         H25       1.0000    0.87660   0.00820   0.83750   Biso      1.000     H          0.125005  
         H26       1.0000    0.56540   0.69650   0.51760   Biso      1.000     H          0.11506199999999998           
         H27       1.0000    0.77920   0.14160   0.43030   Biso      1.000     H          0.14868   
         H28       1.0000    0.72640   0.47820   0.40820   Biso      1.000     H          0.153302  
         H29       1.0000    0.83890   0.67810   0.82290   Biso      1.000     H          0.151898  
         H30       1.0000    0.69000   0.65500   0.77710   Biso      1.000     H          0.154665  
         H31       1.0000    0.41860   0.19170   0.61680   Biso      1.000     H          0.143225  
         H32       1.0000    0.49180   0.09160   0.60490   Biso      1.000     H          0.143594  
         H33       1.0000    0.65790   0.12700   0.55240   Biso      1.000     H          0.120426  
         H34       1.0000    0.84870   0.48980   0.65570   Biso      1.000     H          0.12772999999999998           
         H35       1.0000    0.84700   0.28190   0.46150   Biso      1.000     H          0.145004  
         H36       1.0000    0.59280   0.44480   0.79500   Biso      1.000     H          0.127565  
         O1        1.0000    0.39690   0.18630   0.80110   Biso      1.000     O          -0.790117           
         O2        1.0000    0.88490   0.70650   0.05380   Biso      1.000     O          -0.607627           
         O3        1.0000    0.69560   0.72310   0.00110   Biso      1.000     O          -0.755621           
         O4        1.0000    0.95810   0.16440   0.63090   Biso      1.000     O          -0.657262           
         O5        1.0000    0.66860   0.63130   0.28080   Biso      1.000     O          -0.694934           
         O6        1.0000    0.59080   0.41500   0.15840   Biso      1.000     O          -0.709862           
         O7        1.0000    0.57360   0.79700   0.80730   Biso      1.000     O          -0.629613           
         O8        1.0000    0.60300   0.23240   0.88770   Biso      1.000     O          -0.6019180000000001           
         O9        1.0000    0.52790   0.97720   0.88640   Biso      1.000     O          -0.7646890000000001           
         O10       1.0000    0.06220   0.33520   0.64330   Biso      1.000     O          -0.667427           
         O11       1.0000    0.88980   0.97520   0.27420   Biso      1.000     O          -0.648356           
         O12       1.0000    0.11510   0.29350   0.94620   Biso      1.000     O          -0.607627           
         O13       1.0000    0.47210   0.02280   0.11360   Biso      1.000     O          -0.7646890000000001           
         O14       1.0000    0.42640   0.20300   0.19270   Biso      1.000     O          -0.629613           
         O15       1.0000    0.33140   0.36870   0.71920   Biso      1.000     O          -0.694934           
         O16       1.0000    0.40920   0.58500   0.84160   Biso      1.000     O          -0.709861           
         O17       1.0000    0.93780   0.66480   0.35670   Biso      1.000     O          -0.667427           
         O18       1.0000    0.04190   0.83560   0.36910   Biso      1.000     O          -0.657262           
         O19       1.0000    0.30440   0.27690   0.99890   Biso      1.000     O          -0.755621           
         O20       1.0000    0.60310   0.81370   0.19890   Biso      1.000     O          -0.790117           
         O21       1.0000    0.39700   0.76760   0.11230   Biso      1.000     O          -0.6019180000000001           
         O22       1.0000    0.26690   0.99780   0.85650   Biso      1.000     O          -0.707824           
         O23       1.0000    0.73310   0.00220   0.14350   Biso      1.000     O          -0.707824           
         O24       1.0000    0.11020   0.02480   0.72580   Biso      1.000     O          -0.648356 