
##########################################################################
#               Crystallographic Information Format file
#               Produced by PyCifRW module
#
#  This is a CIF file.  CIF has been adopted by the International
#  Union of Crystallography as the standard for data archiving and
#  transmission.
#
#  For information on this file format, follow the CIF links at
#  http://www.iucr.org
##########################################################################

data_image0

_cell_length_a                          11.781
_cell_length_b                          12.416
_cell_length_c                          12.503
_cell_angle_alpha                       118.87
_cell_angle_beta                        108.3
_cell_angle_gamma                       98.42
_symmetry_space_group_name_H-M          'P 1'
_symmetry_int_tables_number             1
loop_
  _symmetry_equiv_pos_as_xyz
         'x, y, z' 
loop_
  _atom_site_label
  _atom_site_occupancy
  _atom_site_fract_x
  _atom_site_fract_y
  _atom_site_fract_z
  _atom_site_thermal_displace_type
  _atom_site_B_iso_or_equiv
  _atom_site_type_symbol
  _atom_site_charge
         C1        1.0000    0.63990   0.77930   0.89130   Biso      1.000     C          -0.24829099999999998          
         C2        1.0000    0.86080   0.09230   0.75310   Biso      1.000     C          -0.25105500000000003          
         C3        1.0000    0.89190   0.22940   0.82800   Biso      1.000     C          0.18846500000000002           
         C4        1.0000    0.34850   0.51970   0.70360   Biso      1.000     C          0.732704  
         C5        1.0000    0.43900   0.59530   0.68020   Biso      1.000     C          -0.396868           
         C6        1.0000    0.85990   0.97510   0.22980   Biso      1.000     C          0.7601060000000001  
         C7        1.0000    0.83210   0.97390   0.10160   Biso      1.000     C          -0.420004           
         C8        1.0000    0.92820   0.59800   0.68670   Biso      1.000     C          0.725179  
         C9        1.0000    0.87810   0.56410   0.76680   Biso      1.000     C          -0.400675           
         C10       1.0000    0.76900   0.01130   0.75650   Biso      1.000     C          0.188609  
         C11       1.0000    0.65990   0.58080   0.73600   Biso      1.000     C          -0.243437           
         C12       1.0000    0.77150   0.83770   0.97160   Biso      1.000     C          0.178084  
         C13       1.0000    0.84750   0.76560   0.92820   Biso      1.000     C          -0.241616           
         C14       1.0000    0.79210   0.63790   0.81320   Biso      1.000     C          0.17638299999999998           
         C15       1.0000    0.45920   0.74490   0.09840   Biso      1.000     C          0.673027  
         C16       1.0000    0.33440   0.73650   0.00580   Biso      1.000     C          -0.385104           
         C17       1.0000    0.28470   0.19320   0.46830   Biso      1.000     C          0.699824  
         C18       1.0000    0.00230   0.70580   0.29480   Biso      1.000     C          0.707195  
         C19       1.0000    0.99890   0.68190   0.16270   Biso      1.000     C          -0.39664  
         C20       1.0000    0.58160   0.65340   0.77370   Biso      1.000     C          0.174453  
         C21       1.0000    0.17440   0.71820   0.09730   Biso      1.000     C          -0.255142           
         C22       1.0000    0.70930   0.06820   0.83740   Biso      1.000     C          -0.246146           
         C23       1.0000    0.82560   0.28180   0.90270   Biso      1.000     C          -0.255142           
         C24       1.0000    0.65150   0.48030   0.29640   Biso      1.000     C          0.732704  
         C25       1.0000    0.56100   0.40470   0.31980   Biso      1.000     C          -0.396867           
         C26       1.0000    0.14010   0.02490   0.77020   Biso      1.000     C          0.7601060000000001  
         C27       1.0000    0.16790   0.02610   0.89840   Biso      1.000     C          -0.420004           
         C28       1.0000    0.07180   0.40200   0.31330   Biso      1.000     C          0.725179  
         C29       1.0000    0.12190   0.43590   0.23320   Biso      1.000     C          -0.400675           
         C30       1.0000    0.34010   0.41920   0.26400   Biso      1.000     C          -0.243437           
         C31       1.0000    0.41840   0.34660   0.22630   Biso      1.000     C          0.174451  
         C32       1.0000    0.73570   0.20370   0.90930   Biso      1.000     C          0.188072  
         C33       1.0000    0.36010   0.22070   0.10870   Biso      1.000     C          -0.24828899999999998          
         C34       1.0000    0.15250   0.23440   0.07180   Biso      1.000     C          -0.241615           
         C35       1.0000    0.20790   0.36210   0.18680   Biso      1.000     C          0.17638299999999998           
         C36       1.0000    0.54080   0.25510   0.90160   Biso      1.000     C          0.673027  
         C37       1.0000    0.66560   0.26350   0.99420   Biso      1.000     C          -0.385104           
         C38       1.0000    0.71530   0.80680   0.53170   Biso      1.000     C          0.699824  
         C39       1.0000    0.73530   0.86220   0.67480   Biso      1.000     C          -0.39405999999999997          
         C40       1.0000    0.99770   0.29420   0.70520   Biso      1.000     C          0.707195  
         C41       1.0000    0.00110   0.31810   0.83730   Biso      1.000     C          -0.39664  
         C42       1.0000    0.22850   0.16230   0.02840   Biso      1.000     C          0.178084  
         C43       1.0000    0.26430   0.79630   0.09070   Biso      1.000     C          0.188072  
         C44       1.0000    0.26470   0.13780   0.32520   Biso      1.000     C          -0.39405999999999997          
         C45       1.0000    0.23100   0.98870   0.24350   Biso      1.000     C          0.188609  
         C46       1.0000    0.13920   0.90770   0.24690   Biso      1.000     C          -0.25105500000000003          
         C47       1.0000    0.10810   0.77060   0.17200   Biso      1.000     C          0.18846500000000002           
         C48       1.0000    0.29070   0.93180   0.16260   Biso      1.000     C          -0.246146           
         H1        1.0000    0.41170   0.66840   0.68480   Biso      1.000     H          0.149545  
         H2        1.0000    0.91330   0.02050   0.10970   Biso      1.000     H          0.158594  
         H3        1.0000    0.82910   0.46830   0.71020   Biso      1.000     H          0.16507   
         H4        1.0000    0.95140   0.58430   0.84800   Biso      1.000     H          0.152469  
         H5        1.0000    0.62220   0.49270   0.65780   Biso      1.000     H          0.131297  
         H6        1.0000    0.58760   0.82810   0.91850   Biso      1.000     H          0.121847  
         H7        1.0000    0.93810   0.80490   0.97840   Biso      1.000     H          0.119476  
         H8        1.0000    0.28140   0.64350   0.93060   Biso      1.000     H          0.148092  
         H9        1.0000    0.42690   0.53590   0.58590   Biso      1.000     H          0.151197  
         H10       1.0000    0.19470   0.15870   0.27990   Biso      1.000     H          0.154864  
         H11       1.0000    0.34360   0.17990   0.32630   Biso      1.000     H          0.15278699999999998           
         H12       1.0000    0.91880   0.68870   0.11410   Biso      1.000     H          0.14459   
         H13       1.0000    0.99370   0.59010   0.10550   Biso      1.000     H          0.14548599999999998           
         H14       1.0000    0.15740   0.62610   0.04950   Biso      1.000     H          0.118848  
         H15       1.0000    0.35040   0.98580   0.15600   Biso      1.000     H          0.12318   
         H16       1.0000    0.09680   0.94580   0.30100   Biso      1.000     H          0.126419  
         H17       1.0000    0.35130   0.78550   0.96590   Biso      1.000     H          0.14463299999999998           
         H18       1.0000    0.90320   0.05420   0.69900   Biso      1.000     H          0.126419  
         H19       1.0000    0.77430   0.02340   0.09570   Biso      1.000     H          0.15354600000000002           
         H20       1.0000    0.84260   0.37390   0.95050   Biso      1.000     H          0.118848  
         H21       1.0000    0.57310   0.46410   0.41410   Biso      1.000     H          0.151197  
         H22       1.0000    0.58830   0.33160   0.31520   Biso      1.000     H          0.149545  
         H23       1.0000    0.64960   0.01420   0.84400   Biso      1.000     H          0.12318   
         H24       1.0000    0.22570   0.97660   0.90430   Biso      1.000     H          0.15354600000000002           
         H25       1.0000    0.17090   0.53170   0.28980   Biso      1.000     H          0.16507   
         H26       1.0000    0.04860   0.41570   0.15200   Biso      1.000     H          0.152469  
         H27       1.0000    0.37780   0.50730   0.34220   Biso      1.000     H          0.131297  
         H28       1.0000    0.08670   0.97950   0.89030   Biso      1.000     H          0.158594  
         H29       1.0000    0.06190   0.19510   0.02160   Biso      1.000     H          0.119476  
         H30       1.0000    0.64870   0.21450   0.03410   Biso      1.000     H          0.14463299999999998           
         H31       1.0000    0.71860   0.35650   0.06940   Biso      1.000     H          0.148092  
         H32       1.0000    0.80530   0.84130   0.72010   Biso      1.000     H          0.154864  
         H33       1.0000    0.65640   0.82010   0.67370   Biso      1.000     H          0.15278699999999998           
         H34       1.0000    0.08120   0.31130   0.88590   Biso      1.000     H          0.14459   
         H35       1.0000    0.00630   0.40990   0.89450   Biso      1.000     H          0.14548599999999998           
         H36       1.0000    0.41240   0.17190   0.08150   Biso      1.000     H          0.121847  
         O1        1.0000    0.02790   0.47910   0.38860   Biso      1.000     O          -0.78359  
         O2        1.0000    0.38920   0.47410   0.77300   Biso      1.000     O          -0.660462           
         O3        1.0000    0.89510   0.26680   0.60930   Biso      1.000     O          -0.617232           
         O4        1.0000    0.10220   0.31090   0.69520   Biso      1.000     O          -0.788486           
         O5        1.0000    0.80380   0.77660   0.49710   Biso      1.000     O          -0.769609           
         O6        1.0000    0.61370   0.79480   0.44590   Biso      1.000     O          -0.6036600000000001           
         O7        1.0000    0.16830   0.13180   0.78040   Biso      1.000     O          -0.6897300000000001           
         O8        1.0000    0.43840   0.16520   0.85580   Biso      1.000     O          -0.670747           
         O9        1.0000    0.08940   0.91350   0.65550   Biso      1.000     O          -0.733686           
         O10       1.0000    0.07560   0.29940   0.30880   Biso      1.000     O          -0.639845           
         O11       1.0000    0.23100   0.50180   0.64390   Biso      1.000     O          -0.720763           
         O12       1.0000    0.54120   0.33740   0.86940   Biso      1.000     O          -0.663989           
         O13       1.0000    0.91060   0.08650   0.34450   Biso      1.000     O          -0.733686           
         O14       1.0000    0.61080   0.52590   0.22700   Biso      1.000     O          -0.660462           
         O15       1.0000    0.92440   0.70060   0.69120   Biso      1.000     O          -0.639845           
         O16       1.0000    0.97210   0.52090   0.61140   Biso      1.000     O          -0.78359  
         O17       1.0000    0.56160   0.83480   0.14420   Biso      1.000     O          -0.670747           
         O18       1.0000    0.45880   0.66260   0.13060   Biso      1.000     O          -0.663989           
         O19       1.0000    0.38630   0.20520   0.55410   Biso      1.000     O          -0.6036600000000001           
         O20       1.0000    0.19620   0.22340   0.50290   Biso      1.000     O          -0.769609           
         O21       1.0000    0.89780   0.68910   0.30480   Biso      1.000     O          -0.788486           
         O22       1.0000    0.10490   0.73320   0.39070   Biso      1.000     O          -0.617232           
         O23       1.0000    0.76900   0.49820   0.35610   Biso      1.000     O          -0.720763           
         O24       1.0000    0.83170   0.86820   0.21960   Biso      1.000     O          -0.6897310000000001           
         Pr1       1.0000    0.30216   0.25658   0.73515   Biso      1.000     Pr          2.109701  
         Pr2       1.0000    0.02218   0.32221   0.49040   Biso      1.000     Pr          2.157093  
         Pr3       1.0000    0.69784   0.74342   0.26485   Biso      1.000     Pr          2.109701  
         Pr4       1.0000    0.97782   0.67779   0.50960   Biso      1.000     Pr          2.157093 