
##########################################################################
#               Crystallographic Information Format file
#               Produced by PyCifRW module
#
#  This is a CIF file.  CIF has been adopted by the International
#  Union of Crystallography as the standard for data archiving and
#  transmission.
#
#  For information on this file format, follow the CIF links at
#  http://www.iucr.org
##########################################################################

data_image0

_cell_length_a                          15.858
_cell_length_b                          10.522
_cell_length_c                          20.97
_cell_angle_alpha                       90
_cell_angle_beta                        107.52
_cell_angle_gamma                       90
_symmetry_space_group_name_H-M          'P 1'
_symmetry_int_tables_number             1
loop_
  _symmetry_equiv_pos_as_xyz
         'x, y, z' 
loop_
  _atom_site_label
  _atom_site_occupancy
  _atom_site_fract_x
  _atom_site_fract_y
  _atom_site_fract_z
  _atom_site_thermal_displace_type
  _atom_site_B_iso_or_equiv
  _atom_site_type_symbol
  _atom_site_charge
         C1        1.0000    0.74870   0.72790   0.75510   Biso      1.000     C          0.187787  
         C2        1.0000    0.34600   0.03170   0.15050   Biso      1.000     C          0.586585  
         C3        1.0000    0.26880   0.19980   0.19370   Biso      1.000     C          -0.209144           
         C4        1.0000    0.33380   0.10880   0.20800   Biso      1.000     C          0.028772  
         C5        1.0000    0.38670   0.08620   0.27280   Biso      1.000     C          -0.110055           
         C6        1.0000    0.37060   0.15630   0.32400   Biso      1.000     C          0.008388  
         C7        1.0000    0.30350   0.24730   0.31100   Biso      1.000     C          -0.201627           
         C8        1.0000    0.25130   0.27210   0.24490   Biso      1.000     C          0.187786  
         C9        1.0000    0.83970   0.42230   0.21380   Biso      1.000     C          -0.178078           
         C10       1.0000    0.78310   0.53390   0.17940   Biso      1.000     C          0.11452   
         C11       1.0000    0.70550   0.56790   0.19190   Biso      1.000     C          -0.166488           
         C12       1.0000    0.65360   0.66600   0.15670   Biso      1.000     C          -0.088956           
         C13       1.0000    0.67860   0.73210   0.10940   Biso      1.000     C          -0.021682           
         C14       1.0000    0.42400   0.13350   0.39600   Biso      1.000     C          0.673591  
         C15       1.0000    0.19080   0.39840   0.86830   Biso      1.000     C          -0.176532           
         C16       1.0000    0.38060   0.16790   0.93100   Biso      1.000     C          0.66305   
         C17       1.0000    0.32140   0.26790   0.89060   Biso      1.000     C          -0.02169  
         C18       1.0000    0.94950   0.32150   0.35970   Biso      1.000     C          0.114926  
         C19       1.0000    0.34640   0.33400   0.84330   Biso      1.000     C          -0.088947           
         C20       1.0000    0.29450   0.43210   0.80810   Biso      1.000     C          -0.166491           
         C21       1.0000    0.21690   0.46610   0.82060   Biso      1.000     C          0.114522  
         C22       1.0000    0.16030   0.57770   0.78620   Biso      1.000     C          -0.178076           
         C23       1.0000    0.81270   0.89300   0.56270   Biso      1.000     C          0.587312  
         C24       1.0000    0.98500   0.64050   0.58260   Biso      1.000     C          -0.174954           
         C25       1.0000    0.90860   0.70980   0.55860   Biso      1.000     C          -0.097788           
         C26       1.0000    0.89540   0.81780   0.59060   Biso      1.000     C          -0.028161           
         C27       1.0000    0.95830   0.85430   0.64890   Biso      1.000     C          -0.09346  
         C28       1.0000    0.24130   0.29810   0.90240   Biso      1.000     C          -0.075486           
         C29       1.0000    0.13540   0.39850   0.16440   Biso      1.000     C          -0.176939           
         C30       1.0000    0.05050   0.32150   0.14030   Biso      1.000     C          0.114927  
         C31       1.0000    0.03480   0.21520   0.17280   Biso      1.000     C          -0.165117           
         C32       1.0000    0.86460   0.39850   0.33560   Biso      1.000     C          -0.17694  
         C33       1.0000    0.57600   0.13350   0.10400   Biso      1.000     C          0.673592  
         C34       1.0000    0.65400   0.03170   0.34950   Biso      1.000     C          0.586585  
         C35       1.0000    0.73120   0.19980   0.30630   Biso      1.000     C          -0.209145           
         C36       1.0000    0.66620   0.10880   0.29200   Biso      1.000     C          0.028773  
         C37       1.0000    0.61330   0.08620   0.22720   Biso      1.000     C          -0.110057           
         C38       1.0000    0.62940   0.15630   0.17600   Biso      1.000     C          0.008388  
         C39       1.0000    0.69650   0.24730   0.18900   Biso      1.000     C          -0.201629           
         C40       1.0000    0.74870   0.27210   0.25510   Biso      1.000     C          0.187785  
         C41       1.0000    0.04170   0.14570   0.35110   Biso      1.000     C          -0.093464           
         C42       1.0000    0.10460   0.18220   0.40940   Biso      1.000     C          -0.028163           
         C43       1.0000    0.09140   0.29020   0.44140   Biso      1.000     C          -0.097787           
         C44       1.0000    0.01500   0.35950   0.41740   Biso      1.000     C          -0.174948           
         C45       1.0000    0.18730   0.10700   0.43730   Biso      1.000     C          0.587319  
         C46       1.0000    0.19080   0.60160   0.36830   Biso      1.000     C          -0.176533           
         C47       1.0000    0.24130   0.70190   0.40240   Biso      1.000     C          -0.075486           
         C48       1.0000    0.38060   0.83210   0.43100   Biso      1.000     C          0.663048  
         C49       1.0000    0.32140   0.73210   0.39060   Biso      1.000     C          -0.02169  
         C50       1.0000    0.34640   0.66600   0.34330   Biso      1.000     C          -0.088947           
         C51       1.0000    0.29450   0.56790   0.30810   Biso      1.000     C          -0.166491           
         C52       1.0000    0.21690   0.53390   0.32060   Biso      1.000     C          0.114522  
         C53       1.0000    0.16030   0.42230   0.28620   Biso      1.000     C          -0.178077           
         C54       1.0000    0.81270   0.10700   0.06270   Biso      1.000     C          0.587324  
         C55       1.0000    0.98500   0.35950   0.08260   Biso      1.000     C          -0.174953           
         C56       1.0000    0.90860   0.29020   0.05860   Biso      1.000     C          -0.097785           
         C57       1.0000    0.89540   0.18220   0.09060   Biso      1.000     C          -0.028164           
         C58       1.0000    0.95830   0.14570   0.14890   Biso      1.000     C          -0.093458           
         C59       1.0000    0.03480   0.78480   0.67280   Biso      1.000     C          -0.165118           
         C60       1.0000    0.05050   0.67850   0.64030   Biso      1.000     C          0.114928  
         C61       1.0000    0.96520   0.21520   0.32720   Biso      1.000     C          -0.165114           
         C62       1.0000    0.86460   0.60150   0.83560   Biso      1.000     C          -0.176938           
         C63       1.0000    0.65400   0.96830   0.84950   Biso      1.000     C          0.586585  
         C64       1.0000    0.57600   0.86650   0.60400   Biso      1.000     C          0.673591  
         C65       1.0000    0.94950   0.67850   0.85970   Biso      1.000     C          0.114926  
         C66       1.0000    0.96520   0.78480   0.82720   Biso      1.000     C          -0.165118           
         C67       1.0000    0.80920   0.39840   0.63170   Biso      1.000     C          -0.176533           
         C68       1.0000    0.04170   0.85430   0.85110   Biso      1.000     C          -0.093461           
         C69       1.0000    0.75870   0.29810   0.59760   Biso      1.000     C          -0.075486           
         C70       1.0000    0.61940   0.16790   0.56900   Biso      1.000     C          0.663047  
         C71       1.0000    0.67860   0.26790   0.60940   Biso      1.000     C          -0.021691           
         C72       1.0000    0.10460   0.81780   0.90940   Biso      1.000     C          -0.028164           
         C73       1.0000    0.65360   0.33400   0.65670   Biso      1.000     C          -0.088947           
         C74       1.0000    0.09140   0.70980   0.94140   Biso      1.000     C          -0.097787           
         C75       1.0000    0.13540   0.60150   0.66440   Biso      1.000     C          -0.176938           
         C76       1.0000    0.70550   0.43210   0.69190   Biso      1.000     C          -0.166491           
         C77       1.0000    0.78310   0.46610   0.67940   Biso      1.000     C          0.114522  
         C78       1.0000    0.01500   0.64050   0.91740   Biso      1.000     C          -0.174948           
         C79       1.0000    0.83970   0.57770   0.71380   Biso      1.000     C          -0.178077           
         C80       1.0000    0.80920   0.60160   0.13170   Biso      1.000     C          -0.176532           
         C81       1.0000    0.75870   0.70190   0.09760   Biso      1.000     C          -0.075487           
         C82       1.0000    0.18730   0.89300   0.93730   Biso      1.000     C          0.587319  
         C83       1.0000    0.25130   0.72790   0.74490   Biso      1.000     C          0.187787  
         C84       1.0000    0.42400   0.86650   0.89600   Biso      1.000     C          0.673592  
         C85       1.0000    0.34600   0.96830   0.65050   Biso      1.000     C          0.586585  
         C86       1.0000    0.69650   0.75270   0.68900   Biso      1.000     C          -0.201627           
         C87       1.0000    0.26880   0.80020   0.69370   Biso      1.000     C          -0.209145           
         C88       1.0000    0.33380   0.89120   0.70800   Biso      1.000     C          0.028771  
         C89       1.0000    0.62940   0.84370   0.67600   Biso      1.000     C          0.008387  
         C90       1.0000    0.61330   0.91380   0.72720   Biso      1.000     C          -0.110054           
         C91       1.0000    0.61940   0.83210   0.06900   Biso      1.000     C          0.66305   
         C92       1.0000    0.37060   0.84370   0.82400   Biso      1.000     C          0.008388  
         C93       1.0000    0.38670   0.91380   0.77280   Biso      1.000     C          -0.110054           
         C94       1.0000    0.73120   0.80020   0.80630   Biso      1.000     C          -0.209144           
         C95       1.0000    0.30350   0.75270   0.81100   Biso      1.000     C          -0.201628           
         C96       1.0000    0.66620   0.89120   0.79200   Biso      1.000     C          0.028772  
         H1        1.0000    0.82960   0.61580   0.86570   Biso      1.000     H          0.132902  
         H2        1.0000    0.82960   0.38420   0.36570   Biso      1.000     H          0.132903  
         H3        1.0000    0.70680   0.29190   0.15380   Biso      1.000     H          0.133018  
         H4        1.0000    0.09950   0.45040   0.26840   Biso      1.000     H          0.121644  
         H5        1.0000    0.16220   0.35680   0.31910   Biso      1.000     H          0.119538  
         H6        1.0000    0.13460   0.68300   0.97980   Biso      1.000     H          0.118694  
         H7        1.0000    0.87950   0.48810   0.33750   Biso      1.000     H          0.13024   
         H8        1.0000    0.76430   0.78600   0.85050   Biso      1.000     H          0.133013  
         H9        1.0000    0.70680   0.70810   0.65380   Biso      1.000     H          0.133016  
         H10       1.0000    0.31230   0.52450   0.27570   Biso      1.000     H          0.11166   
         H11       1.0000    0.92300   0.18950   0.28800   Biso      1.000     H          0.113502  
         H12       1.0000    0.39880   0.68700   0.33450   Biso      1.000     H          0.120332  
         H13       1.0000    0.76430   0.21400   0.35050   Biso      1.000     H          0.133014  
         H14       1.0000    0.05100   0.92570   0.82790   Biso      1.000     H          0.121458  
         H15       1.0000    0.05100   0.07430   0.32790   Biso      1.000     H          0.121459  
         H16       1.0000    0.00690   0.56740   0.93980   Biso      1.000     H          0.112057  
         H17       1.0000    0.92300   0.81050   0.78800   Biso      1.000     H          0.113502  
         H18       1.0000    0.87950   0.51190   0.83750   Biso      1.000     H          0.13024   
         H19       1.0000    0.22220   0.74890   0.43300   Biso      1.000     H          0.127742  
         H20       1.0000    0.56850   0.97420   0.71820   Biso      1.000     H          0.138853  
         H21       1.0000    0.13890   0.57950   0.37750   Biso      1.000     H          0.110731  
         H22       1.0000    0.56850   0.02580   0.21820   Biso      1.000     H          0.138855  
         H23       1.0000    0.00690   0.43260   0.43980   Biso      1.000     H          0.112057  
         H24       1.0000    0.13460   0.31700   0.47980   Biso      1.000     H          0.118694  
         H25       1.0000    0.12050   0.51190   0.66250   Biso      1.000     H          0.13024   
         H26       1.0000    0.17040   0.38420   0.13430   Biso      1.000     H          0.132903  
         H27       1.0000    0.86540   0.31700   0.02020   Biso      1.000     H          0.118694  
         H28       1.0000    0.60120   0.68700   0.16550   Biso      1.000     H          0.120333  
         H29       1.0000    0.13890   0.42050   0.87750   Biso      1.000     H          0.11073   
         H30       1.0000    0.86110   0.57950   0.12250   Biso      1.000     H          0.110731  
         H31       1.0000    0.22220   0.25110   0.93300   Biso      1.000     H          0.127742  
         H32       1.0000    0.77780   0.74890   0.06700   Biso      1.000     H          0.127743  
         H33       1.0000    0.31230   0.47550   0.77570   Biso      1.000     H          0.11166   
         H34       1.0000    0.29320   0.70810   0.84620   Biso      1.000     H          0.133017  
         H35       1.0000    0.99310   0.43260   0.06020   Biso      1.000     H          0.112057  
         H36       1.0000    0.16220   0.64320   0.81910   Biso      1.000     H          0.119538  
         H37       1.0000    0.99310   0.56740   0.56020   Biso      1.000     H          0.112057  
         H38       1.0000    0.43150   0.97420   0.78180   Biso      1.000     H          0.138854  
         H39       1.0000    0.86540   0.68300   0.52020   Biso      1.000     H          0.118694  
         H40       1.0000    0.94900   0.92570   0.67210   Biso      1.000     H          0.12146   
         H41       1.0000    0.23570   0.78600   0.64950   Biso      1.000     H          0.133013  
         H42       1.0000    0.07700   0.81050   0.71200   Biso      1.000     H          0.113502  
         H43       1.0000    0.17040   0.61580   0.63430   Biso      1.000     H          0.132903  
         H44       1.0000    0.09950   0.54960   0.76840   Biso      1.000     H          0.121644  
         H45       1.0000    0.68770   0.52450   0.22430   Biso      1.000     H          0.11166   
         H46       1.0000    0.39880   0.31300   0.83450   Biso      1.000     H          0.120332  
         H47       1.0000    0.43150   0.02580   0.28180   Biso      1.000     H          0.138854  
         H48       1.0000    0.07700   0.18950   0.21200   Biso      1.000     H          0.113503  
         H49       1.0000    0.12050   0.48810   0.16250   Biso      1.000     H          0.13024   
         H50       1.0000    0.68770   0.47550   0.72430   Biso      1.000     H          0.11166   
         H51       1.0000    0.60120   0.31300   0.66550   Biso      1.000     H          0.120332  
         H52       1.0000    0.23570   0.21400   0.14950   Biso      1.000     H          0.133013  
         H53       1.0000    0.90050   0.54960   0.73160   Biso      1.000     H          0.121643  
         H54       1.0000    0.77780   0.25110   0.56700   Biso      1.000     H          0.127742  
         H55       1.0000    0.29320   0.29190   0.34620   Biso      1.000     H          0.133017  
         H56       1.0000    0.86110   0.42050   0.62250   Biso      1.000     H          0.11073   
         H57       1.0000    0.90050   0.45040   0.23160   Biso      1.000     H          0.121644  
         H58       1.0000    0.83780   0.35680   0.18090   Biso      1.000     H          0.119538  
         H59       1.0000    0.83780   0.64320   0.68090   Biso      1.000     H          0.119537  
         H60       1.0000    0.94900   0.07430   0.17210   Biso      1.000     H          0.121458  
         N1        1.0000    0.81160   0.63270   0.76810   Biso      1.000     N          -0.004377           
         N2        1.0000    0.18840   0.36730   0.23190   Biso      1.000     N          -0.004379           
         N3        1.0000    0.18840   0.63270   0.73190   Biso      1.000     N          -0.00438  
         N4        1.0000    0.81160   0.36730   0.26810   Biso      1.000     N          -0.004379           
         O1        1.0000    0.60560   0.93430   0.33790   Biso      1.000     O          -0.682255           
         O2        1.0000    0.19540   0.01020   0.40110   Biso      1.000     O          -0.387132           
         O3        1.0000    0.24130   0.13440   0.48970   Biso      1.000     O          -0.635967           
         O4        1.0000    0.45970   0.17010   0.93360   Biso      1.000     O          -0.714613           
         O5        1.0000    0.34740   0.91260   0.46140   Biso      1.000     O          -0.591603           
         O6        1.0000    0.24130   0.86560   0.98970   Biso      1.000     O          -0.635966           
         O7        1.0000    0.19540   0.98980   0.90110   Biso      1.000     O          -0.387133           
         O8        1.0000    0.60560   0.06570   0.83790   Biso      1.000     O          -0.682255           
         O9        1.0000    0.50240   0.92140   0.59300   Biso      1.000     O          -0.694489           
         O10       1.0000    0.60840   0.83070   0.55940   Biso      1.000     O          -0.683665           
         O11       1.0000    0.68890   0.92920   0.90840   Biso      1.000     O          -0.626192           
         O12       1.0000    0.54030   0.17010   0.56640   Biso      1.000     O          -0.714612           
         O13       1.0000    0.65260   0.08740   0.53860   Biso      1.000     O          -0.5916   
         O14       1.0000    0.54030   0.82990   0.06640   Biso      1.000     O          -0.714614           
         O15       1.0000    0.75870   0.86560   0.51030   Biso      1.000     O          -0.635968           
         O16       1.0000    0.80460   0.98980   0.59890   Biso      1.000     O          -0.387124           
         O17       1.0000    0.39440   0.06570   0.66210   Biso      1.000     O          -0.682255           
         O18       1.0000    0.49760   0.92140   0.90700   Biso      1.000     O          -0.694489           
         O19       1.0000    0.39160   0.83070   0.94060   Biso      1.000     O          -0.683664           
         O20       1.0000    0.31110   0.92920   0.59160   Biso      1.000     O          -0.626192           
         O21       1.0000    0.50240   0.07860   0.09300   Biso      1.000     O          -0.694488           
         O22       1.0000    0.34740   0.08740   0.96140   Biso      1.000     O          -0.591605           
         O23       1.0000    0.65260   0.91260   0.03860   Biso      1.000     O          -0.591608           
         O24       1.0000    0.75870   0.13440   0.01030   Biso      1.000     O          -0.635965           
         O25       1.0000    0.80460   0.01020   0.09890   Biso      1.000     O          -0.387143           
         O26       1.0000    0.39440   0.93430   0.16210   Biso      1.000     O          -0.682255           
         O27       1.0000    0.49760   0.07860   0.40700   Biso      1.000     O          -0.694488           
         O28       1.0000    0.39160   0.16930   0.44060   Biso      1.000     O          -0.683665           
         O29       1.0000    0.31110   0.07080   0.09160   Biso      1.000     O          -0.626192           
         O30       1.0000    0.45970   0.82990   0.43360   Biso      1.000     O          -0.714613           
         O31       1.0000    0.68890   0.07080   0.40840   Biso      1.000     O          -0.626192           
         O32       1.0000    0.60840   0.16930   0.05940   Biso      1.000     O          -0.683664           
         Sm1       1.0000    0.60068   0.07927   0.95392   Biso      1.000     Sm          2.174441  
         Sm2       1.0000    0.39932   0.07927   0.54608   Biso      1.000     Sm          2.17444   
         Sm3       1.0000    0.60068   0.92073   0.45392   Biso      1.000     Sm          2.174439  
         Sm4       1.0000    0.39932   0.92073   0.04608   Biso      1.000     Sm          2.174441 