
##########################################################################
#               Crystallographic Information Format file
#               Produced by PyCifRW module
#
#  This is a CIF file.  CIF has been adopted by the International
#  Union of Crystallography as the standard for data archiving and
#  transmission.
#
#  For information on this file format, follow the CIF links at
#  http://www.iucr.org
##########################################################################

data_image0

_cell_length_a                          15.854
_cell_length_b                          10.515
_cell_length_c                          20.947
_cell_angle_alpha                       90
_cell_angle_beta                        107.587
_cell_angle_gamma                       90
_symmetry_space_group_name_H-M          'P 1'
_symmetry_int_tables_number             1
loop_
  _symmetry_equiv_pos_as_xyz
         'x, y, z' 
loop_
  _atom_site_label
  _atom_site_occupancy
  _atom_site_fract_x
  _atom_site_fract_y
  _atom_site_fract_z
  _atom_site_thermal_displace_type
  _atom_site_B_iso_or_equiv
  _atom_site_type_symbol
  _atom_site_charge
         C1        1.0000    0.74760   0.72780   0.75480   Biso      1.000     C          0.19017699999999998           
         C2        1.0000    0.42470   0.13250   0.39600   Biso      1.000     C          0.610961  
         C3        1.0000    0.30410   0.24680   0.31070   Biso      1.000     C          -0.191661           
         C4        1.0000    0.37080   0.15650   0.32430   Biso      1.000     C          0.012901  
         C5        1.0000    0.38670   0.08570   0.27270   Biso      1.000     C          -0.083243           
         C6        1.0000    0.33390   0.10780   0.20760   Biso      1.000     C          0.02235   
         C7        1.0000    0.26870   0.19950   0.19400   Biso      1.000     C          -0.198648           
         C8        1.0000    0.25240   0.27220   0.24520   Biso      1.000     C          0.189997  
         C9        1.0000    0.86530   0.39820   0.33530   Biso      1.000     C          -0.180581           
         C10       1.0000    0.94960   0.32080   0.36020   Biso      1.000     C          0.114719  
         C11       1.0000    0.96460   0.21480   0.32820   Biso      1.000     C          -0.166082           
         C12       1.0000    0.34700   0.96760   0.65030   Biso      1.000     C          0.55594   
         C13       1.0000    0.81250   0.89580   0.56260   Biso      1.000     C          0.555283  
         C14       1.0000    0.98470   0.64080   0.58230   Biso      1.000     C          -0.17472000000000001          
         C15       1.0000    0.90770   0.71140   0.55830   Biso      1.000     C          -0.093181           
         C16       1.0000    0.89510   0.81930   0.59030   Biso      1.000     C          -0.020977000000000003         
         C17       1.0000    0.67810   0.73200   0.10880   Biso      1.000     C          -0.021887           
         C18       1.0000    0.03540   0.78520   0.67180   Biso      1.000     C          -0.165722           
         C19       1.0000    0.05040   0.67920   0.63980   Biso      1.000     C          0.115167  
         C20       1.0000    0.13470   0.60180   0.66470   Biso      1.000     C          -0.18043  
         C21       1.0000    0.16010   0.57660   0.78580   Biso      1.000     C          -0.18223599999999998          
         C22       1.0000    0.24320   0.29940   0.90260   Biso      1.000     C          -0.0817   
         C23       1.0000    0.19140   0.39700   0.86760   Biso      1.000     C          -0.172999           
         C24       1.0000    0.21720   0.46610   0.82050   Biso      1.000     C          0.114845  
         C25       1.0000    0.29470   0.43270   0.80820   Biso      1.000     C          -0.167656           
         C26       1.0000    0.34720   0.33500   0.84330   Biso      1.000     C          -0.083371           
         C27       1.0000    0.38130   0.83180   0.43130   Biso      1.000     C          0.591808  
         C28       1.0000    0.32190   0.73200   0.39120   Biso      1.000     C          -0.021894           
         C29       1.0000    0.34720   0.66500   0.34330   Biso      1.000     C          -0.083855           
         C30       1.0000    0.29470   0.56730   0.30820   Biso      1.000     C          -0.168107           
         C31       1.0000    0.61870   0.83180   0.06870   Biso      1.000     C          0.5918100000000001  
         C32       1.0000    0.57530   0.13250   0.10400   Biso      1.000     C          0.610965  
         C33       1.0000    0.69590   0.24680   0.18930   Biso      1.000     C          -0.191665           
         C34       1.0000    0.62920   0.15650   0.17570   Biso      1.000     C          0.012903  
         C35       1.0000    0.61330   0.08570   0.22730   Biso      1.000     C          -0.083248           
         C36       1.0000    0.66610   0.10780   0.29240   Biso      1.000     C          0.022351  
         C37       1.0000    0.73130   0.19950   0.30600   Biso      1.000     C          -0.198648           
         C38       1.0000    0.74760   0.27220   0.25480   Biso      1.000     C          0.189998  
         C39       1.0000    0.70530   0.56730   0.19180   Biso      1.000     C          -0.1681   
         C40       1.0000    0.78280   0.53390   0.17950   Biso      1.000     C          0.114374  
         C41       1.0000    0.80860   0.60300   0.13240   Biso      1.000     C          -0.173097           
         C42       1.0000    0.75680   0.70060   0.09740   Biso      1.000     C          -0.081567           
         C43       1.0000    0.32190   0.26800   0.89120   Biso      1.000     C          -0.022348           
         C44       1.0000    0.83990   0.42340   0.21420   Biso      1.000     C          -0.182132           
         C45       1.0000    0.81250   0.10420   0.06260   Biso      1.000     C          0.555635  
         C46       1.0000    0.98470   0.35920   0.08230   Biso      1.000     C          -0.175146           
         C47       1.0000    0.90770   0.28860   0.05830   Biso      1.000     C          -0.09354900000000001          
         C48       1.0000    0.89510   0.18070   0.09030   Biso      1.000     C          -0.02085  
         C49       1.0000    0.95780   0.14410   0.14790   Biso      1.000     C          -0.100595           
         C50       1.0000    0.03540   0.21480   0.17180   Biso      1.000     C          -0.16609000000000002          
         C51       1.0000    0.05040   0.32080   0.13980   Biso      1.000     C          0.114731  
         C52       1.0000    0.13470   0.39820   0.16470   Biso      1.000     C          -0.180584           
         C53       1.0000    0.16010   0.42340   0.28580   Biso      1.000     C          -0.182134           
         C54       1.0000    0.24320   0.70060   0.40260   Biso      1.000     C          -0.081576           
         C55       1.0000    0.19140   0.60300   0.36760   Biso      1.000     C          -0.173101           
         C56       1.0000    0.21720   0.53390   0.32050   Biso      1.000     C          0.114372  
         C57       1.0000    0.34700   0.03240   0.15030   Biso      1.000     C          0.555955  
         C58       1.0000    0.38130   0.16820   0.93130   Biso      1.000     C          0.59109   
         C59       1.0000    0.95780   0.85590   0.64790   Biso      1.000     C          -0.100824           
         C60       1.0000    0.65280   0.66500   0.15670   Biso      1.000     C          -0.083846           
         C61       1.0000    0.61870   0.16820   0.56870   Biso      1.000     C          0.59109   
         C62       1.0000    0.01530   0.35920   0.41770   Biso      1.000     C          -0.17514200000000002          
         C63       1.0000    0.67810   0.26800   0.60880   Biso      1.000     C          -0.022346           
         C64       1.0000    0.65300   0.03240   0.34970   Biso      1.000     C          0.5559689999999999  
         C65       1.0000    0.65280   0.33500   0.65670   Biso      1.000     C          -0.083365           
         C66       1.0000    0.65300   0.96760   0.84970   Biso      1.000     C          0.55591   
         C67       1.0000    0.70530   0.43270   0.69180   Biso      1.000     C          -0.167657           
         C68       1.0000    0.18750   0.89580   0.93740   Biso      1.000     C          0.555286  
         C69       1.0000    0.01530   0.64080   0.91770   Biso      1.000     C          -0.174716           
         C70       1.0000    0.57530   0.86750   0.60400   Biso      1.000     C          0.610524  
         C71       1.0000    0.78280   0.46610   0.67950   Biso      1.000     C          0.114849  
         C72       1.0000    0.10490   0.81930   0.90970   Biso      1.000     C          -0.020987000000000002         
         C73       1.0000    0.80860   0.39700   0.63240   Biso      1.000     C          -0.173    
         C74       1.0000    0.04220   0.85590   0.85210   Biso      1.000     C          -0.100828           
         C75       1.0000    0.42470   0.86750   0.89600   Biso      1.000     C          0.61053   
         C76       1.0000    0.96460   0.78520   0.82820   Biso      1.000     C          -0.165722           
         C77       1.0000    0.94960   0.67920   0.86020   Biso      1.000     C          0.11516300000000002           
         C78       1.0000    0.75680   0.29940   0.59740   Biso      1.000     C          -0.081689           
         C79       1.0000    0.83990   0.57660   0.71420   Biso      1.000     C          -0.18223699999999998          
         C80       1.0000    0.86530   0.60180   0.83530   Biso      1.000     C          -0.180426           
         C81       1.0000    0.09230   0.71140   0.94170   Biso      1.000     C          -0.093167           
         C82       1.0000    0.09230   0.28860   0.44170   Biso      1.000     C          -0.09355  
         C83       1.0000    0.18750   0.10420   0.43740   Biso      1.000     C          0.555635  
         C84       1.0000    0.66610   0.89220   0.79240   Biso      1.000     C          0.023122  
         C85       1.0000    0.33390   0.89220   0.70760   Biso      1.000     C          0.023117  
         C86       1.0000    0.30410   0.75320   0.81070   Biso      1.000     C          -0.190909           
         C87       1.0000    0.37080   0.84350   0.82430   Biso      1.000     C          0.012166  
         C88       1.0000    0.26870   0.80050   0.69400   Biso      1.000     C          -0.20061199999999998          
         C89       1.0000    0.10490   0.18070   0.40970   Biso      1.000     C          -0.02085  
         C90       1.0000    0.38670   0.91430   0.77270   Biso      1.000     C          -0.08655399999999999          
         C91       1.0000    0.04220   0.14410   0.35210   Biso      1.000     C          -0.100599           
         C92       1.0000    0.69590   0.75320   0.68930   Biso      1.000     C          -0.190909           
         C93       1.0000    0.73130   0.80050   0.80600   Biso      1.000     C          -0.200622           
         C94       1.0000    0.62920   0.84350   0.67570   Biso      1.000     C          0.012169  
         C95       1.0000    0.61330   0.91430   0.72730   Biso      1.000     C          -0.086565           
         C96       1.0000    0.25240   0.72780   0.74520   Biso      1.000     C          0.190183  
         Eu1       1.0000    0.39911   0.92134   0.04577   Biso      1.000     Eu          1.376364  
         Eu2       1.0000    0.60089   0.92134   0.45423   Biso      1.000     Eu          1.376349  
         Eu3       1.0000    0.39911   0.07866   0.54577   Biso      1.000     Eu          1.3760729999999999  
         Eu4       1.0000    0.60089   0.07866   0.95423   Biso      1.000     Eu          1.376017  
         H1        1.0000    0.76520   0.78650   0.85010   Biso      1.000     H          0.130839  
         H2        1.0000    0.70650   0.29130   0.15410   Biso      1.000     H          0.13250599999999998           
         H3        1.0000    0.07810   0.18860   0.21070   Biso      1.000     H          0.11152100000000001           
         H4        1.0000    0.77510   0.25420   0.56580   Biso      1.000     H          0.12376300000000001           
         H5        1.0000    0.17000   0.38500   0.13470   Biso      1.000     H          0.134758  
         H6        1.0000    0.86160   0.41650   0.62430   Biso      1.000     H          0.10906300000000001           
         H7        1.0000    0.94880   0.07250   0.17110   Biso      1.000     H          0.122307  
         H8        1.0000    0.56840   0.97470   0.71830   Biso      1.000     H          0.13766199999999998           
         H9        1.0000    0.86410   0.31510   0.02000   Biso      1.000     H          0.119622  
         H10       1.0000    0.99250   0.43250   0.05980   Biso      1.000     H          0.113259  
         H11       1.0000    0.68790   0.47640   0.72420   Biso      1.000     H          0.11106600000000001           
         H12       1.0000    0.60030   0.31450   0.66540   Biso      1.000     H          0.123576  
         H13       1.0000    0.76520   0.21350   0.35010   Biso      1.000     H          0.130877  
         H14       1.0000    0.77510   0.74580   0.06580   Biso      1.000     H          0.123893  
         H15       1.0000    0.11930   0.48770   0.16290   Biso      1.000     H          0.13411199999999998           
         H16       1.0000    0.86160   0.58350   0.12430   Biso      1.000     H          0.108997  
         H17       1.0000    0.70650   0.70870   0.65410   Biso      1.000     H          0.13206500000000002           
         H18       1.0000    0.60030   0.68550   0.16540   Biso      1.000     H          0.123464  
         H19       1.0000    0.68790   0.52360   0.22420   Biso      1.000     H          0.11084300000000001           
         H20       1.0000    0.56840   0.02530   0.21830   Biso      1.000     H          0.137701  
         H21       1.0000    0.90050   0.54740   0.73230   Biso      1.000     H          0.124004  
         H22       1.0000    0.29350   0.70870   0.84590   Biso      1.000     H          0.13206199999999998           
         H23       1.0000    0.09950   0.45260   0.26770   Biso      1.000     H          0.12405999999999999           
         H24       1.0000    0.13590   0.31510   0.48000   Biso      1.000     H          0.119626  
         H25       1.0000    0.86410   0.68490   0.52000   Biso      1.000     H          0.11978599999999999           
         H26       1.0000    0.94880   0.92750   0.67110   Biso      1.000     H          0.12226   
         H27       1.0000    0.05120   0.07250   0.32890   Biso      1.000     H          0.12230099999999999           
         H28       1.0000    0.07810   0.81140   0.71070   Biso      1.000     H          0.111552  
         H29       1.0000    0.17000   0.61500   0.63470   Biso      1.000     H          0.134967  
         H30       1.0000    0.11930   0.51230   0.66290   Biso      1.000     H          0.13400399999999998           
         H31       1.0000    0.16110   0.64190   0.81870   Biso      1.000     H          0.121352  
         H32       1.0000    0.09950   0.54740   0.76770   Biso      1.000     H          0.124001  
         H33       1.0000    0.22490   0.25420   0.93420   Biso      1.000     H          0.123759  
         H34       1.0000    0.23480   0.78650   0.64990   Biso      1.000     H          0.130828  
         H35       1.0000    0.13840   0.41650   0.87570   Biso      1.000     H          0.109054  
         H36       1.0000    0.31210   0.47640   0.77580   Biso      1.000     H          0.111068  
         H37       1.0000    0.43160   0.97470   0.78170   Biso      1.000     H          0.13766   
         H38       1.0000    0.39970   0.31450   0.83460   Biso      1.000     H          0.12356500000000001           
         H39       1.0000    0.99250   0.56750   0.55980   Biso      1.000     H          0.11349300000000001           
         H40       1.0000    0.00750   0.43250   0.44020   Biso      1.000     H          0.113255  
         H41       1.0000    0.92190   0.18860   0.28930   Biso      1.000     H          0.11151900000000001           
         H42       1.0000    0.83000   0.38500   0.36530   Biso      1.000     H          0.134756  
         H43       1.0000    0.83890   0.64190   0.68130   Biso      1.000     H          0.121353  
         H44       1.0000    0.22490   0.74580   0.43420   Biso      1.000     H          0.123879  
         H45       1.0000    0.13840   0.58350   0.37570   Biso      1.000     H          0.108983  
         H46       1.0000    0.88070   0.51230   0.83710   Biso      1.000     H          0.133992  
         H47       1.0000    0.83000   0.61500   0.86530   Biso      1.000     H          0.134963  
         H48       1.0000    0.31210   0.52360   0.27580   Biso      1.000     H          0.11083499999999999           
         H49       1.0000    0.39970   0.68550   0.33460   Biso      1.000     H          0.123453  
         H50       1.0000    0.16110   0.35810   0.31870   Biso      1.000     H          0.12156099999999999           
         H51       1.0000    0.05120   0.92750   0.82890   Biso      1.000     H          0.12225499999999999           
         H52       1.0000    0.43160   0.02530   0.28170   Biso      1.000     H          0.137699  
         H53       1.0000    0.13590   0.68490   0.98000   Biso      1.000     H          0.11978599999999999           
         H54       1.0000    0.23480   0.21350   0.14990   Biso      1.000     H          0.130879  
         H55       1.0000    0.00750   0.56750   0.94020   Biso      1.000     H          0.11349200000000001           
         H56       1.0000    0.90050   0.45260   0.23230   Biso      1.000     H          0.12406199999999999           
         H57       1.0000    0.83890   0.35810   0.18130   Biso      1.000     H          0.12156199999999999           
         H58       1.0000    0.88070   0.48770   0.33710   Biso      1.000     H          0.13410899999999998           
         H59       1.0000    0.29350   0.29130   0.34590   Biso      1.000     H          0.13250599999999998           
         H60       1.0000    0.92190   0.81140   0.78930   Biso      1.000     H          0.111549  
         N1        1.0000    0.18780   0.63260   0.73210   Biso      1.000     N          0.027494  
         N2        1.0000    0.81220   0.36740   0.26790   Biso      1.000     N          0.028898000000000004          
         N3        1.0000    0.81220   0.63260   0.76790   Biso      1.000     N          0.027494  
         N4        1.0000    0.18780   0.36740   0.23210   Biso      1.000     N          0.028901  
         O1        1.0000    0.24190   0.13320   0.48970   Biso      1.000     O          -0.5386810000000001           
         O2        1.0000    0.19550   0.00810   0.40050   Biso      1.000     O          -0.353567           
         O3        1.0000    0.65140   0.91190   0.03819   Biso      1.000     O          -0.430117           
         O4        1.0000    0.53950   0.82990   0.06690   Biso      1.000     O          -0.55128  
         O5        1.0000    0.60790   0.16880   0.05943   Biso      1.000     O          -0.569243           
         O6        1.0000    0.60560   0.93400   0.33851   Biso      1.000     O          -0.566469           
         O7        1.0000    0.50200   0.92030   0.59256   Biso      1.000     O          -0.565705           
         O8        1.0000    0.60790   0.83120   0.55943   Biso      1.000     O          -0.567549           
         O9        1.0000    0.53950   0.17010   0.56690   Biso      1.000     O          -0.548541           
         O10       1.0000    0.65140   0.08810   0.53819   Biso      1.000     O          -0.42596300000000004          
         O11       1.0000    0.19550   0.99190   0.90050   Biso      1.000     O          -0.348808           
         O12       1.0000    0.24190   0.86680   0.98970   Biso      1.000     O          -0.537933           
         O13       1.0000    0.68860   0.92950   0.90836   Biso      1.000     O          -0.529964           
         O14       1.0000    0.68860   0.07050   0.40836   Biso      1.000     O          -0.530716           
         O15       1.0000    0.50200   0.07970   0.09256   Biso      1.000     O          -0.56919  
         O16       1.0000    0.39440   0.93400   0.16149   Biso      1.000     O          -0.566459           
         O17       1.0000    0.39210   0.83120   0.94057   Biso      1.000     O          -0.567557           
         O18       1.0000    0.46050   0.17010   0.93310   Biso      1.000     O          -0.5485300000000001           
         O19       1.0000    0.34860   0.08810   0.96181   Biso      1.000     O          -0.425962           
         O20       1.0000    0.80450   0.99190   0.59950   Biso      1.000     O          -0.34880300000000003          
         O21       1.0000    0.75810   0.86680   0.51030   Biso      1.000     O          -0.537931           
         O22       1.0000    0.31140   0.92950   0.59164   Biso      1.000     O          -0.529992           
         O23       1.0000    0.39440   0.06600   0.66149   Biso      1.000     O          -0.5657439999999999           
         O24       1.0000    0.49800   0.07970   0.40744   Biso      1.000     O          -0.569186           
         O25       1.0000    0.39210   0.16880   0.44057   Biso      1.000     O          -0.569235           
         O26       1.0000    0.46050   0.82990   0.43310   Biso      1.000     O          -0.551269           
         O27       1.0000    0.34860   0.91190   0.46181   Biso      1.000     O          -0.430109           
         O28       1.0000    0.80450   0.00810   0.09950   Biso      1.000     O          -0.353567           
         O29       1.0000    0.75810   0.13320   0.01030   Biso      1.000     O          -0.5386770000000001           
         O30       1.0000    0.31140   0.07050   0.09164   Biso      1.000     O          -0.530709           
         O31       1.0000    0.49800   0.92030   0.90744   Biso      1.000     O          -0.565715           
         O32       1.0000    0.60560   0.06600   0.83851   Biso      1.000     O          -0.565707 