
##########################################################################
#               Crystallographic Information Format file
#               Produced by PyCifRW module
#
#  This is a CIF file.  CIF has been adopted by the International
#  Union of Crystallography as the standard for data archiving and
#  transmission.
#
#  For information on this file format, follow the CIF links at
#  http://www.iucr.org
##########################################################################

data_image0

_cell_length_a                          15.838
_cell_length_b                          10.548
_cell_length_c                          21.074
_cell_angle_alpha                       90
_cell_angle_beta                        107.247
_cell_angle_gamma                       90
_symmetry_space_group_name_H-M          'P 1'
_symmetry_int_tables_number             1
loop_
  _symmetry_equiv_pos_as_xyz
         'x, y, z' 
loop_
  _atom_site_label
  _atom_site_occupancy
  _atom_site_fract_x
  _atom_site_fract_y
  _atom_site_fract_z
  _atom_site_thermal_displace_type
  _atom_site_B_iso_or_equiv
  _atom_site_type_symbol
  _atom_site_charge
         C1        1.0000    0.21660   0.53540   0.32100   Biso      1.000     C          0.118375  
         C2        1.0000    0.29360   0.43220   0.80880   Biso      1.000     C          -0.16891199999999998          
         C3        1.0000    0.42270   0.13390   0.39570   Biso      1.000     C          0.671654  
         C4        1.0000    0.57730   0.13390   0.10430   Biso      1.000     C          0.671652  
         C5        1.0000    0.13520   0.59990   0.66580   Biso      1.000     C          -0.18187799999999998          
         C6        1.0000    0.74860   0.27290   0.25420   Biso      1.000     C          0.190467  
         C7        1.0000    0.63050   0.15720   0.17580   Biso      1.000     C          0.007312999999999999          
         C8        1.0000    0.38590   0.91270   0.77330   Biso      1.000     C          -0.109082           
         C9        1.0000    0.33350   0.89040   0.70850   Biso      1.000     C          0.02355   
         C10       1.0000    0.69680   0.24890   0.19060   Biso      1.000     C          -0.198494           
         C11       1.0000    0.91020   0.29190   0.05870   Biso      1.000     C          -0.096496           
         C12       1.0000    0.30320   0.75110   0.80940   Biso      1.000     C          -0.198495           
         C13       1.0000    0.66650   0.10960   0.29150   Biso      1.000     C          0.02355   
         C14       1.0000    0.36950   0.84280   0.82420   Biso      1.000     C          0.007315  
         C15       1.0000    0.25140   0.72710   0.74580   Biso      1.000     C          0.190472  
         C16       1.0000    0.42270   0.86610   0.89570   Biso      1.000     C          0.671655  
         C17       1.0000    0.61410   0.08730   0.22670   Biso      1.000     C          -0.10909300000000001          
         C18       1.0000    0.25140   0.27290   0.24580   Biso      1.000     C          0.190467  
         C19       1.0000    0.86480   0.40010   0.33420   Biso      1.000     C          -0.181881           
         C20       1.0000    0.36950   0.15720   0.32420   Biso      1.000     C          0.007311  
         C21       1.0000    0.05170   0.32200   0.14060   Biso      1.000     C          0.118467  
         C22       1.0000    0.29360   0.56780   0.30880   Biso      1.000     C          -0.168903           
         C23       1.0000    0.21660   0.46460   0.82100   Biso      1.000     C          0.11838399999999999           
         C24       1.0000    0.32010   0.26850   0.89170   Biso      1.000     C          -0.02325  
         C25       1.0000    0.37880   0.16840   0.93200   Biso      1.000     C          0.661978  
         C26       1.0000    0.08980   0.29190   0.44130   Biso      1.000     C          -0.096488           
         C27       1.0000    0.91020   0.70810   0.55870   Biso      1.000     C          -0.096498           
         C28       1.0000    0.98640   0.63960   0.58320   Biso      1.000     C          -0.174367           
         C29       1.0000    0.34610   0.03430   0.15160   Biso      1.000     C          0.591592  
         C30       1.0000    0.23950   0.29910   0.90250   Biso      1.000     C          -0.076407           
         C31       1.0000    0.81560   0.10720   0.06280   Biso      1.000     C          0.580325  
         C32       1.0000    0.34550   0.33410   0.84430   Biso      1.000     C          -0.08848500000000001          
         C33       1.0000    0.81560   0.89280   0.56280   Biso      1.000     C          0.580317  
         C34       1.0000    0.34610   0.96570   0.65160   Biso      1.000     C          0.591593  
         C35       1.0000    0.34550   0.66590   0.34430   Biso      1.000     C          -0.08849  
         C36       1.0000    0.18910   0.39560   0.86690   Biso      1.000     C          -0.173832           
         C37       1.0000    0.95930   0.85480   0.64840   Biso      1.000     C          -0.093954           
         C38       1.0000    0.23950   0.70090   0.40250   Biso      1.000     C          -0.076408           
         C39       1.0000    0.15930   0.42460   0.28580   Biso      1.000     C          -0.182556           
         C40       1.0000    0.15930   0.57540   0.78580   Biso      1.000     C          -0.182557           
         C41       1.0000    0.89620   0.81820   0.59060   Biso      1.000     C          -0.028988999999999997         
         C42       1.0000    0.05170   0.67800   0.64060   Biso      1.000     C          0.118467  
         C43       1.0000    0.98640   0.36040   0.08320   Biso      1.000     C          -0.174367           
         C44       1.0000    0.26780   0.79830   0.69500   Biso      1.000     C          -0.206812           
         C45       1.0000    0.89620   0.18180   0.09060   Biso      1.000     C          -0.028993           
         C46       1.0000    0.03580   0.78430   0.67270   Biso      1.000     C          -0.164806           
         C47       1.0000    0.70640   0.56780   0.19120   Biso      1.000     C          -0.16891099999999998          
         C48       1.0000    0.18910   0.60440   0.36690   Biso      1.000     C          -0.173832           
         C49       1.0000    0.95930   0.14520   0.14840   Biso      1.000     C          -0.09395099999999999          
         C50       1.0000    0.08980   0.70810   0.94130   Biso      1.000     C          -0.096489           
         C51       1.0000    0.70640   0.43220   0.69120   Biso      1.000     C          -0.16891099999999998          
         C52       1.0000    0.38590   0.08730   0.27330   Biso      1.000     C          -0.109075           
         C53       1.0000    0.04070   0.14520   0.35160   Biso      1.000     C          -0.093958           
         C54       1.0000    0.86480   0.59990   0.83420   Biso      1.000     C          -0.18187899999999999          
         C55       1.0000    0.81090   0.60440   0.13310   Biso      1.000     C          -0.173835           
         C56       1.0000    0.61410   0.91270   0.72670   Biso      1.000     C          -0.10909100000000001          
         C57       1.0000    0.66650   0.89040   0.79150   Biso      1.000     C          0.023549  
         C58       1.0000    0.03580   0.21570   0.17270   Biso      1.000     C          -0.164805           
         C59       1.0000    0.69680   0.75110   0.69060   Biso      1.000     C          -0.198498           
         C60       1.0000    0.78340   0.53540   0.17900   Biso      1.000     C          0.11838699999999999           
         C61       1.0000    0.65390   0.03430   0.34840   Biso      1.000     C          0.591601  
         C62       1.0000    0.63050   0.84280   0.67580   Biso      1.000     C          0.007312999999999999          
         C63       1.0000    0.74860   0.72710   0.75420   Biso      1.000     C          0.190472  
         C64       1.0000    0.57730   0.86610   0.60430   Biso      1.000     C          0.671652  
         C65       1.0000    0.65450   0.66590   0.15570   Biso      1.000     C          -0.088488           
         C66       1.0000    0.13520   0.40010   0.16580   Biso      1.000     C          -0.18187799999999998          
         C67       1.0000    0.76050   0.70090   0.09750   Biso      1.000     C          -0.076405           
         C68       1.0000    0.37880   0.83160   0.43200   Biso      1.000     C          0.661979  
         C69       1.0000    0.01360   0.36040   0.41680   Biso      1.000     C          -0.17436600000000002          
         C70       1.0000    0.32010   0.73150   0.39170   Biso      1.000     C          -0.023245           
         C71       1.0000    0.18440   0.10720   0.43720   Biso      1.000     C          0.580331  
         C72       1.0000    0.78340   0.46460   0.67900   Biso      1.000     C          0.11838399999999999           
         C73       1.0000    0.33350   0.10960   0.20850   Biso      1.000     C          0.023548  
         C74       1.0000    0.62120   0.16840   0.56800   Biso      1.000     C          0.661994  
         C75       1.0000    0.67990   0.73150   0.10830   Biso      1.000     C          -0.023247999999999998         
         C76       1.0000    0.01360   0.63960   0.91680   Biso      1.000     C          -0.17436600000000002          
         C77       1.0000    0.62120   0.83160   0.06800   Biso      1.000     C          0.661995  
         C78       1.0000    0.76050   0.29910   0.59750   Biso      1.000     C          -0.076407           
         C79       1.0000    0.96420   0.21570   0.32730   Biso      1.000     C          -0.164805           
         C80       1.0000    0.65450   0.33410   0.65570   Biso      1.000     C          -0.088488           
         C81       1.0000    0.18440   0.89280   0.93720   Biso      1.000     C          0.580328  
         C82       1.0000    0.65390   0.96570   0.84840   Biso      1.000     C          0.591601  
         C83       1.0000    0.30320   0.24890   0.30940   Biso      1.000     C          -0.198488           
         C84       1.0000    0.81090   0.39560   0.63310   Biso      1.000     C          -0.173832           
         C85       1.0000    0.67990   0.26850   0.60830   Biso      1.000     C          -0.02325  
         C86       1.0000    0.73220   0.20170   0.30500   Biso      1.000     C          -0.20681599999999997          
         C87       1.0000    0.04070   0.85480   0.85160   Biso      1.000     C          -0.093959           
         C88       1.0000    0.26780   0.20170   0.19500   Biso      1.000     C          -0.20680900000000002          
         C89       1.0000    0.94830   0.32200   0.35940   Biso      1.000     C          0.118471  
         C90       1.0000    0.84070   0.57540   0.71420   Biso      1.000     C          -0.182557           
         C91       1.0000    0.10380   0.81820   0.90940   Biso      1.000     C          -0.028994           
         C92       1.0000    0.94830   0.67800   0.85940   Biso      1.000     C          0.118467  
         C93       1.0000    0.10380   0.18180   0.40940   Biso      1.000     C          -0.028994           
         C94       1.0000    0.73220   0.79830   0.80500   Biso      1.000     C          -0.206814           
         C95       1.0000    0.84070   0.42460   0.21420   Biso      1.000     C          -0.182559           
         C96       1.0000    0.96420   0.78430   0.82730   Biso      1.000     C          -0.164801           
         H1        1.0000    0.07750   0.19030   0.21190   Biso      1.000     H          0.11358900000000001           
         H2        1.0000    0.15940   0.35970   0.31840   Biso      1.000     H          0.11822300000000001           
         H3        1.0000    0.09900   0.45410   0.26750   Biso      1.000     H          0.120745  
         H4        1.0000    0.23420   0.21610   0.15120   Biso      1.000     H          0.130774  
         H5        1.0000    0.86750   0.68090   0.52050   Biso      1.000     H          0.118709  
         H6        1.0000    0.13520   0.58500   0.37390   Biso      1.000     H          0.108555  
         H7        1.0000    0.00510   0.43370   0.43870   Biso      1.000     H          0.112897  
         H8        1.0000    0.77980   0.74580   0.06650   Biso      1.000     H          0.126673  
         H9        1.0000    0.60200   0.68710   0.16430   Biso      1.000     H          0.118701  
         H10       1.0000    0.86480   0.58500   0.12610   Biso      1.000     H          0.108556  
         H11       1.0000    0.04970   0.07310   0.32900   Biso      1.000     H          0.12272899999999999           
         H12       1.0000    0.84060   0.35970   0.18160   Biso      1.000     H          0.11822300000000001           
         H13       1.0000    0.90100   0.45410   0.23250   Biso      1.000     H          0.120745  
         H14       1.0000    0.76580   0.21610   0.34880   Biso      1.000     H          0.130777  
         H15       1.0000    0.92250   0.19030   0.28810   Biso      1.000     H          0.11358900000000001           
         H16       1.0000    0.68850   0.52440   0.22330   Biso      1.000     H          0.11391199999999999           
         H17       1.0000    0.82910   0.38860   0.36400   Biso      1.000     H          0.132947  
         H18       1.0000    0.88090   0.48890   0.33530   Biso      1.000     H          0.13176400000000002           
         H19       1.0000    0.56930   0.02700   0.21770   Biso      1.000     H          0.13558399999999998           
         H20       1.0000    0.86750   0.31910   0.02050   Biso      1.000     H          0.11871   
         H21       1.0000    0.99490   0.43370   0.06130   Biso      1.000     H          0.112897  
         H22       1.0000    0.22020   0.74580   0.43350   Biso      1.000     H          0.126673  
         H23       1.0000    0.39800   0.68710   0.33570   Biso      1.000     H          0.1187    
         H24       1.0000    0.95030   0.07310   0.17100   Biso      1.000     H          0.12273099999999999           
         H25       1.0000    0.70640   0.29560   0.15600   Biso      1.000     H          0.128145  
         H26       1.0000    0.13250   0.31910   0.47950   Biso      1.000     H          0.11871199999999998           
         H27       1.0000    0.17090   0.38860   0.13600   Biso      1.000     H          0.132947  
         H28       1.0000    0.09900   0.54590   0.76750   Biso      1.000     H          0.120745  
         H29       1.0000    0.23420   0.78390   0.65120   Biso      1.000     H          0.130775  
         H30       1.0000    0.07750   0.80970   0.71190   Biso      1.000     H          0.11358800000000001           
         H31       1.0000    0.31150   0.47560   0.77670   Biso      1.000     H          0.11391199999999999           
         H32       1.0000    0.17090   0.61140   0.63600   Biso      1.000     H          0.132947  
         H33       1.0000    0.84060   0.64030   0.68160   Biso      1.000     H          0.11822200000000001           
         H34       1.0000    0.04970   0.92690   0.82900   Biso      1.000     H          0.122728  
         H35       1.0000    0.86480   0.41500   0.62610   Biso      1.000     H          0.108555  
         H36       1.0000    0.60200   0.31290   0.66430   Biso      1.000     H          0.1187    
         H37       1.0000    0.77980   0.25420   0.56650   Biso      1.000     H          0.126671  
         H38       1.0000    0.00510   0.56630   0.93870   Biso      1.000     H          0.112897  
         H39       1.0000    0.13250   0.68090   0.97950   Biso      1.000     H          0.11871099999999998           
         H40       1.0000    0.11910   0.51110   0.66470   Biso      1.000     H          0.13176500000000002           
         H41       1.0000    0.43070   0.97300   0.78230   Biso      1.000     H          0.13558299999999998           
         H42       1.0000    0.31150   0.52440   0.27670   Biso      1.000     H          0.11391099999999998           
         H43       1.0000    0.29360   0.70440   0.84400   Biso      1.000     H          0.128145  
         H44       1.0000    0.95030   0.92690   0.67100   Biso      1.000     H          0.12272999999999999           
         H45       1.0000    0.15940   0.64030   0.81840   Biso      1.000     H          0.11822300000000001           
         H46       1.0000    0.39800   0.31290   0.83570   Biso      1.000     H          0.118699  
         H47       1.0000    0.11910   0.48890   0.16470   Biso      1.000     H          0.13176500000000002           
         H48       1.0000    0.43070   0.02700   0.28230   Biso      1.000     H          0.135581  
         H49       1.0000    0.29360   0.29560   0.34400   Biso      1.000     H          0.128143  
         H50       1.0000    0.70640   0.70440   0.65600   Biso      1.000     H          0.128144  
         H51       1.0000    0.13520   0.41500   0.87390   Biso      1.000     H          0.108555  
         H52       1.0000    0.88090   0.51110   0.83530   Biso      1.000     H          0.13176400000000002           
         H53       1.0000    0.56930   0.97300   0.71770   Biso      1.000     H          0.13558299999999998           
         H54       1.0000    0.68850   0.47560   0.72330   Biso      1.000     H          0.11391199999999999           
         H55       1.0000    0.92250   0.80970   0.78810   Biso      1.000     H          0.11358900000000001           
         H56       1.0000    0.76580   0.78390   0.84880   Biso      1.000     H          0.130776  
         H57       1.0000    0.90100   0.54590   0.73250   Biso      1.000     H          0.120744  
         H58       1.0000    0.99490   0.56630   0.56130   Biso      1.000     H          0.112897  
         H59       1.0000    0.22020   0.25420   0.93350   Biso      1.000     H          0.126671  
         H60       1.0000    0.82910   0.61140   0.86400   Biso      1.000     H          0.132946  
         N1        1.0000    0.18810   0.36810   0.23280   Biso      1.000     N          -0.004141           
         N2        1.0000    0.81190   0.63190   0.76720   Biso      1.000     N          -0.0041530000000000004        
         N3        1.0000    0.81190   0.36810   0.26720   Biso      1.000     N          -0.004151           
         N4        1.0000    0.18810   0.63190   0.73280   Biso      1.000     N          -0.004143           
         Nd1       1.0000    0.60081   0.08038   0.95333   Biso      1.000     Nd          2.122194  
         Nd2       1.0000    0.39920   0.08038   0.54667   Biso      1.000     Nd          2.122208  
         Nd3       1.0000    0.39920   0.91962   0.04667   Biso      1.000     Nd          2.1222090000000002  
         Nd4       1.0000    0.60081   0.91962   0.45333   Biso      1.000     Nd          2.1221900000000002  
         O1        1.0000    0.31050   0.92910   0.59360   Biso      1.000     O          -0.618002           
         O2        1.0000    0.45830   0.82830   0.43500   Biso      1.000     O          -0.705238           
         O3        1.0000    0.39300   0.93490   0.16310   Biso      1.000     O          -0.681747           
         O4        1.0000    0.19410   0.98870   0.90070   Biso      1.000     O          -0.380868           
         O5        1.0000    0.31050   0.07090   0.09360   Biso      1.000     O          -0.618003           
         O6        1.0000    0.76080   0.13580   0.01040   Biso      1.000     O          -0.625898           
         O7        1.0000    0.23920   0.86420   0.98960   Biso      1.000     O          -0.625862           
         O8        1.0000    0.68950   0.92910   0.90640   Biso      1.000     O          -0.6180140000000001           
         O9        1.0000    0.60700   0.06510   0.83690   Biso      1.000     O          -0.681751           
         O10       1.0000    0.54170   0.17170   0.56500   Biso      1.000     O          -0.70528  
         O11       1.0000    0.60950   0.82790   0.56030   Biso      1.000     O          -0.6709109999999999           
         O12       1.0000    0.65430   0.08730   0.53860   Biso      1.000     O          -0.580499           
         O13       1.0000    0.50460   0.92200   0.59300   Biso      1.000     O          -0.684229           
         O14       1.0000    0.80590   0.01130   0.09930   Biso      1.000     O          -0.380875           
         O15       1.0000    0.39050   0.17210   0.43970   Biso      1.000     O          -0.67094  
         O16       1.0000    0.49540   0.07800   0.40700   Biso      1.000     O          -0.684232           
         O17       1.0000    0.76080   0.86420   0.51040   Biso      1.000     O          -0.625896           
         O18       1.0000    0.50460   0.07800   0.09300   Biso      1.000     O          -0.684229           
         O19       1.0000    0.65430   0.91270   0.03860   Biso      1.000     O          -0.580504           
         O20       1.0000    0.60950   0.17210   0.06030   Biso      1.000     O          -0.67091  
         O21       1.0000    0.54170   0.82830   0.06500   Biso      1.000     O          -0.705283           
         O22       1.0000    0.60700   0.93490   0.33690   Biso      1.000     O          -0.681751           
         O23       1.0000    0.68950   0.07090   0.40640   Biso      1.000     O          -0.618015           
         O24       1.0000    0.80590   0.98870   0.59930   Biso      1.000     O          -0.380853           
         O25       1.0000    0.49540   0.92200   0.90700   Biso      1.000     O          -0.684233           
         O26       1.0000    0.34570   0.08730   0.96140   Biso      1.000     O          -0.580494           
         O27       1.0000    0.39050   0.82790   0.93970   Biso      1.000     O          -0.67094  
         O28       1.0000    0.45830   0.17170   0.93500   Biso      1.000     O          -0.705237           
         O29       1.0000    0.19410   0.01130   0.40070   Biso      1.000     O          -0.380874           
         O30       1.0000    0.39300   0.06510   0.66310   Biso      1.000     O          -0.681747           
         O31       1.0000    0.34570   0.91270   0.46140   Biso      1.000     O          -0.580497           
         O32       1.0000    0.23920   0.13580   0.48960   Biso      1.000     O          -0.625862 