
##########################################################################
#               Crystallographic Information Format file
#               Produced by PyCifRW module
#
#  This is a CIF file.  CIF has been adopted by the International
#  Union of Crystallography as the standard for data archiving and
#  transmission.
#
#  For information on this file format, follow the CIF links at
#  http://www.iucr.org
##########################################################################

data_image0

_cell_length_a                          15.861
_cell_length_b                          10.599
_cell_length_c                          21.235
_cell_angle_alpha                       90
_cell_angle_beta                        106.914
_cell_angle_gamma                       90
_symmetry_space_group_name_H-M          'P 1'
_symmetry_int_tables_number             1
loop_
  _symmetry_equiv_pos_as_xyz
         'x, y, z' 
loop_
  _atom_site_label
  _atom_site_occupancy
  _atom_site_fract_x
  _atom_site_fract_y
  _atom_site_fract_z
  _atom_site_thermal_displace_type
  _atom_site_B_iso_or_equiv
  _atom_site_type_symbol
  _atom_site_charge
         C1        1.0000    0.31680   0.39160   0.56370   Biso      1.000     C          0.5691579999999999  
         C2        1.0000    0.34100   0.92700   0.21400   Biso      1.000     C          -0.180553           
         C3        1.0000    0.36440   0.89920   0.33250   Biso      1.000     C          -0.18093299999999998          
         C4        1.0000    0.54050   0.64800   0.35090   Biso      1.000     C          -0.095525           
         C5        1.0000    0.46400   0.71910   0.32610   Biso      1.000     C          -0.16403199999999998          
         C6        1.0000    0.44830   0.82290   0.35800   Biso      1.000     C          0.119726  
         C7        1.0000    0.51130   0.86220   0.41530   Biso      1.000     C          -0.176903           
         C8        1.0000    0.58720   0.79090   0.44020   Biso      1.000     C          -0.095849           
         C9        1.0000    0.60110   0.68370   0.40820   Biso      1.000     C          -0.028009           
         C10       1.0000    0.68320   0.60840   0.43630   Biso      1.000     C          0.569148  
         C11       1.0000    0.75140   0.77490   0.24690   Biso      1.000     C          0.18428599999999998           
         C12       1.0000    0.76670   0.70370   0.19640   Biso      1.000     C          -0.205092           
         C13       1.0000    0.83260   0.61220   0.20990   Biso      1.000     C          0.019344999999999998          
         C14       1.0000    0.88410   0.59030   0.27400   Biso      1.000     C          -0.11398699999999999          
         C15       1.0000    0.28590   0.03610   0.17910   Biso      1.000     C          0.121044  
         C16       1.0000    0.84520   0.53570   0.15400   Biso      1.000     C          0.5819850000000001  
         C17       1.0000    0.81790   0.23070   0.39200   Biso      1.000     C          -0.025544999999999998         
         C18       1.0000    0.16740   0.38780   0.79010   Biso      1.000     C          0.019341999999999998          
         C19       1.0000    0.23330   0.29630   0.80360   Biso      1.000     C          -0.205091           
         C20       1.0000    0.24860   0.22510   0.75310   Biso      1.000     C          0.184289  
         C21       1.0000    0.19840   0.25020   0.68890   Biso      1.000     C          -0.197525           
         C22       1.0000    0.13180   0.34070   0.67550   Biso      1.000     C          0.005075  
         C23       1.0000    0.08040   0.36370   0.60480   Biso      1.000     C          0.650267  
         C24       1.0000    0.20710   0.93220   0.68960   Biso      1.000     C          -0.16575  
         C25       1.0000    0.15590   0.83620   0.65490   Biso      1.000     C          -0.08860599999999999          
         C26       1.0000    0.12430   0.66970   0.56810   Biso      1.000     C          0.638166  
         C27       1.0000    0.18210   0.76930   0.60800   Biso      1.000     C          -0.025542           
         C28       1.0000    0.26310   0.79800   0.59880   Biso      1.000     C          -0.077126           
         C29       1.0000    0.31360   0.89490   0.63360   Biso      1.000     C          -0.176771           
         C30       1.0000    0.15480   0.46430   0.84600   Biso      1.000     C          0.5819840000000001  
         C31       1.0000    0.28590   0.96390   0.67910   Biso      1.000     C          0.121048  
         C32       1.0000    0.31360   0.10510   0.13360   Biso      1.000     C          -0.176771           
         C33       1.0000    0.18210   0.23070   0.10800   Biso      1.000     C          -0.025546           
         C34       1.0000    0.73690   0.20200   0.40120   Biso      1.000     C          -0.077127           
         C35       1.0000    0.68640   0.10510   0.36640   Biso      1.000     C          -0.176769           
         C36       1.0000    0.71410   0.03610   0.32090   Biso      1.000     C          0.121045  
         C37       1.0000    0.65900   0.92700   0.28600   Biso      1.000     C          -0.180553           
         C38       1.0000    0.63560   0.89920   0.16750   Biso      1.000     C          -0.18093399999999998          
         C39       1.0000    0.45950   0.64800   0.14910   Biso      1.000     C          -0.095525           
         C40       1.0000    0.53600   0.71910   0.17390   Biso      1.000     C          -0.16403099999999998          
         C41       1.0000    0.55170   0.82290   0.14200   Biso      1.000     C          0.119726  
         C42       1.0000    0.48870   0.86220   0.08470   Biso      1.000     C          -0.176902           
         C43       1.0000    0.41280   0.79090   0.05980   Biso      1.000     C          -0.095849           
         C44       1.0000    0.39890   0.68370   0.09180   Biso      1.000     C          -0.028009           
         C45       1.0000    0.31680   0.60840   0.06370   Biso      1.000     C          0.5691510000000001  
         C46       1.0000    0.84410   0.16380   0.34510   Biso      1.000     C          -0.088604           
         C47       1.0000    0.26310   0.20200   0.09880   Biso      1.000     C          -0.077124           
         C48       1.0000    0.79290   0.06780   0.31040   Biso      1.000     C          -0.165745           
         C49       1.0000    0.86820   0.65930   0.32450   Biso      1.000     C          0.0050810000000000004         
         C50       1.0000    0.80160   0.74980   0.31110   Biso      1.000     C          -0.19752999999999998          
         C51       1.0000    0.15480   0.53570   0.34600   Biso      1.000     C          0.5819840000000001  
         C52       1.0000    0.11590   0.59030   0.22600   Biso      1.000     C          -0.11398499999999999          
         C53       1.0000    0.16740   0.61220   0.29010   Biso      1.000     C          0.019346000000000002          
         C54       1.0000    0.23330   0.70370   0.30360   Biso      1.000     C          -0.20509299999999997          
         C55       1.0000    0.24860   0.77490   0.25310   Biso      1.000     C          0.184289  
         C56       1.0000    0.19840   0.74980   0.18890   Biso      1.000     C          -0.197527           
         C57       1.0000    0.13180   0.65930   0.17550   Biso      1.000     C          0.005079  
         C58       1.0000    0.08040   0.63630   0.10480   Biso      1.000     C          0.650267  
         C59       1.0000    0.20710   0.06780   0.18960   Biso      1.000     C          -0.165746           
         C60       1.0000    0.15590   0.16380   0.15490   Biso      1.000     C          -0.088603           
         C61       1.0000    0.12430   0.33030   0.06810   Biso      1.000     C          0.638163  
         C62       1.0000    0.91960   0.63630   0.39520   Biso      1.000     C          0.650267  
         C63       1.0000    0.34100   0.07300   0.71400   Biso      1.000     C          -0.180552           
         C64       1.0000    0.11590   0.40970   0.72600   Biso      1.000     C          -0.113976           
         C65       1.0000    0.87570   0.33030   0.43190   Biso      1.000     C          0.638163  
         C66       1.0000    0.53600   0.28090   0.67390   Biso      1.000     C          -0.16403  
         C67       1.0000    0.45950   0.35200   0.64910   Biso      1.000     C          -0.095525           
         C68       1.0000    0.65900   0.07300   0.78600   Biso      1.000     C          -0.180554           
         C69       1.0000    0.71410   0.96390   0.82090   Biso      1.000     C          0.12104300000000001           
         C70       1.0000    0.84520   0.46430   0.65400   Biso      1.000     C          0.5819850000000001  
         C71       1.0000    0.68640   0.89490   0.86640   Biso      1.000     C          -0.176769           
         C72       1.0000    0.88410   0.40970   0.77400   Biso      1.000     C          -0.113997           
         C73       1.0000    0.83260   0.38780   0.70990   Biso      1.000     C          0.01935   
         C74       1.0000    0.73690   0.79800   0.90120   Biso      1.000     C          -0.077125           
         C75       1.0000    0.76670   0.29630   0.69640   Biso      1.000     C          -0.205096           
         C76       1.0000    0.81790   0.76930   0.89200   Biso      1.000     C          -0.025544999999999998         
         C77       1.0000    0.75140   0.22510   0.74690   Biso      1.000     C          0.18428599999999998           
         C78       1.0000    0.87570   0.66970   0.93190   Biso      1.000     C          0.638163  
         C79       1.0000    0.84410   0.83620   0.84510   Biso      1.000     C          -0.088604           
         C80       1.0000    0.80160   0.25020   0.81110   Biso      1.000     C          -0.197534           
         C81       1.0000    0.86820   0.34070   0.82450   Biso      1.000     C          0.005083  
         C82       1.0000    0.91960   0.36370   0.89520   Biso      1.000     C          0.650269  
         C83       1.0000    0.55170   0.17710   0.64200   Biso      1.000     C          0.119726  
         C84       1.0000    0.68320   0.39160   0.93630   Biso      1.000     C          0.56915   
         C85       1.0000    0.63560   0.10080   0.66750   Biso      1.000     C          -0.18093599999999999          
         C86       1.0000    0.60110   0.31630   0.90820   Biso      1.000     C          -0.028019           
         C87       1.0000    0.39890   0.31630   0.59180   Biso      1.000     C          -0.028012000000000002         
         C88       1.0000    0.36440   0.10080   0.83250   Biso      1.000     C          -0.18093299999999998          
         C89       1.0000    0.41280   0.20910   0.55980   Biso      1.000     C          -0.095845           
         C90       1.0000    0.54050   0.35200   0.85090   Biso      1.000     C          -0.095516           
         C91       1.0000    0.46400   0.28090   0.82610   Biso      1.000     C          -0.16403299999999998          
         C92       1.0000    0.44830   0.17710   0.85800   Biso      1.000     C          0.119726  
         C93       1.0000    0.51130   0.13780   0.91530   Biso      1.000     C          -0.176904           
         C94       1.0000    0.48870   0.13780   0.58470   Biso      1.000     C          -0.176901           
         C95       1.0000    0.79290   0.93220   0.81040   Biso      1.000     C          -0.165745           
         C96       1.0000    0.58720   0.20910   0.94020   Biso      1.000     C          -0.095846           
         H1        1.0000    0.71660   0.24840   0.43110   Biso      1.000     H          0.12499600000000001           
         H2        1.0000    0.57690   0.69480   0.21310   Biso      1.000     H          0.114293  
         H3        1.0000    0.89700   0.81600   0.83690   Biso      1.000     H          0.11570699999999999           
         H4        1.0000    0.63280   0.08580   0.37370   Biso      1.000     H          0.110669  
         H5        1.0000    0.57690   0.30520   0.71310   Biso      1.000     H          0.114294  
         H6        1.0000    0.37110   0.18410   0.52120   Biso      1.000     H          0.11599000000000001           
         H7        1.0000    0.20950   0.79410   0.15430   Biso      1.000     H          0.129051  
         H8        1.0000    0.49740   0.93560   0.06340   Biso      1.000     H          0.115337  
         H9        1.0000    0.65900   0.86200   0.31810   Biso      1.000     H          0.116976  
         H10       1.0000    0.71660   0.75160   0.93110   Biso      1.000     H          0.12499600000000001           
         H11       1.0000    0.26730   0.71730   0.34680   Biso      1.000     H          0.132077  
         H12       1.0000    0.49740   0.06440   0.56340   Biso      1.000     H          0.115337  
         H13       1.0000    0.62010   0.01210   0.66510   Biso      1.000     H          0.127745  
         H14       1.0000    0.59870   0.95590   0.26800   Biso      1.000     H          0.120651  
         H15       1.0000    0.07140   0.53010   0.21730   Biso      1.000     H          0.133831  
         H16       1.0000    0.37110   0.81590   0.02120   Biso      1.000     H          0.11599100000000001           
         H17       1.0000    0.44980   0.57670   0.17150   Biso      1.000     H          0.122524  
         H18       1.0000    0.79050   0.79410   0.34570   Biso      1.000     H          0.129052  
         H19       1.0000    0.67200   0.88550   0.13850   Biso      1.000     H          0.130353  
         H20       1.0000    0.44980   0.42330   0.67150   Biso      1.000     H          0.122524  
         H21       1.0000    0.65900   0.13800   0.81810   Biso      1.000     H          0.116977  
         H22       1.0000    0.59870   0.04410   0.76800   Biso      1.000     H          0.120652  
         H23       1.0000    0.81200   0.02350   0.27920   Biso      1.000     H          0.111354  
         H24       1.0000    0.62010   0.98790   0.16510   Biso      1.000     H          0.127745  
         H25       1.0000    0.89700   0.18400   0.33690   Biso      1.000     H          0.11570699999999999           
         H26       1.0000    0.67200   0.11450   0.63850   Biso      1.000     H          0.130354  
         H27       1.0000    0.18800   0.02350   0.22080   Biso      1.000     H          0.111354  
         H28       1.0000    0.63280   0.91420   0.87370   Biso      1.000     H          0.110669  
         H29       1.0000    0.40130   0.04410   0.73200   Biso      1.000     H          0.120651  
         H30       1.0000    0.81200   0.97650   0.77920   Biso      1.000     H          0.111353  
         H31       1.0000    0.92860   0.53010   0.28270   Biso      1.000     H          0.133832  
         H32       1.0000    0.07140   0.46990   0.71730   Biso      1.000     H          0.13383   
         H33       1.0000    0.26730   0.28270   0.84680   Biso      1.000     H          0.132076  
         H34       1.0000    0.20950   0.20590   0.65430   Biso      1.000     H          0.12905   
         H35       1.0000    0.62890   0.18410   0.97880   Biso      1.000     H          0.11599000000000001           
         H36       1.0000    0.50260   0.06440   0.93660   Biso      1.000     H          0.115337  
         H37       1.0000    0.73270   0.71730   0.15320   Biso      1.000     H          0.132078  
         H38       1.0000    0.18800   0.97650   0.72080   Biso      1.000     H          0.111354  
         H39       1.0000    0.42310   0.30520   0.78690   Biso      1.000     H          0.114294  
         H40       1.0000    0.28340   0.75160   0.56890   Biso      1.000     H          0.12499600000000001           
         H41       1.0000    0.55020   0.42330   0.82850   Biso      1.000     H          0.122525  
         H42       1.0000    0.36720   0.91420   0.62630   Biso      1.000     H          0.110669  
         H43       1.0000    0.37990   0.01210   0.83490   Biso      1.000     H          0.127745  
         H44       1.0000    0.34100   0.13800   0.68190   Biso      1.000     H          0.116976  
         H45       1.0000    0.10300   0.81600   0.66310   Biso      1.000     H          0.11570699999999999           
         H46       1.0000    0.10300   0.18400   0.16310   Biso      1.000     H          0.11570599999999999           
         H47       1.0000    0.36720   0.08580   0.12630   Biso      1.000     H          0.110669  
         H48       1.0000    0.62890   0.81590   0.47880   Biso      1.000     H          0.11599000000000001           
         H49       1.0000    0.55020   0.57670   0.32850   Biso      1.000     H          0.122525  
         H50       1.0000    0.73270   0.28270   0.65320   Biso      1.000     H          0.13208   
         H51       1.0000    0.50260   0.93560   0.43660   Biso      1.000     H          0.115337  
         H52       1.0000    0.37990   0.98790   0.33490   Biso      1.000     H          0.127745  
         H53       1.0000    0.32800   0.88550   0.36150   Biso      1.000     H          0.130353  
         H54       1.0000    0.92860   0.46990   0.78270   Biso      1.000     H          0.13383499999999998           
         H55       1.0000    0.42310   0.69480   0.28690   Biso      1.000     H          0.114293  
         H56       1.0000    0.34100   0.86200   0.18190   Biso      1.000     H          0.116976  
         H57       1.0000    0.79050   0.20590   0.84570   Biso      1.000     H          0.129055  
         H58       1.0000    0.32800   0.11450   0.86150   Biso      1.000     H          0.130352  
         H59       1.0000    0.28340   0.24840   0.06890   Biso      1.000     H          0.12499600000000001           
         H60       1.0000    0.40130   0.95590   0.23200   Biso      1.000     H          0.120651  
         La1       1.0000    0.89925   0.41834   0.04756   Biso      1.000     La          1.949717  
         La2       1.0000    0.10075   0.58166   0.95244   Biso      1.000     La          1.949718  
         La3       1.0000    0.10075   0.41834   0.45244   Biso      1.000     La          1.949719  
         La4       1.0000    0.89925   0.58166   0.54756   Biso      1.000     La          1.949718  
         N1        1.0000    0.68710   0.87130   0.23340   Biso      1.000     N          -0.0071909999999999995        
         N2        1.0000    0.31290   0.12870   0.76660   Biso      1.000     N          -0.007188           
         N3        1.0000    0.68710   0.12870   0.73340   Biso      1.000     N          -0.0071920000000000005        
         N4        1.0000    0.31290   0.87130   0.26660   Biso      1.000     N          -0.00719  
         O1        1.0000    0.84220   0.41260   0.46070   Biso      1.000     O          -0.5445260000000001           
         O2        1.0000    0.30800   0.51120   0.09910   Biso      1.000     O          -0.379759           
         O3        1.0000    0.26410   0.63380   0.01070   Biso      1.000     O          -0.588302           
         O4        1.0000    0.99210   0.57770   0.40670   Biso      1.000     O          -0.654039           
         O5        1.0000    0.89170   0.43710   0.16590   Biso      1.000     O          -0.639471           
         O6        1.0000    0.95520   0.32580   0.43620   Biso      1.000     O          -0.651299           
         O7        1.0000    0.88890   0.67620   0.43910   Biso      1.000     O          -0.624405           
         O8        1.0000    0.19120   0.42860   0.90400   Biso      1.000     O          -0.5991350000000001           
         O9        1.0000    0.10830   0.43710   0.33410   Biso      1.000     O          -0.63947  
         O10       1.0000    0.30800   0.48880   0.59910   Biso      1.000     O          -0.37977  
         O11       1.0000    0.26410   0.36620   0.51070   Biso      1.000     O          -0.5883010000000001           
         O12       1.0000    0.99210   0.42230   0.90670   Biso      1.000     O          -0.654039           
         O13       1.0000    0.88890   0.32380   0.93910   Biso      1.000     O          -0.624404           
         O14       1.0000    0.95520   0.67420   0.93620   Biso      1.000     O          -0.6512979999999999           
         O15       1.0000    0.84220   0.58740   0.96070   Biso      1.000     O          -0.5445260000000001           
         O16       1.0000    0.89170   0.56290   0.66590   Biso      1.000     O          -0.63947  
         O17       1.0000    0.80880   0.42860   0.59600   Biso      1.000     O          -0.599134           
         O18       1.0000    0.69200   0.48880   0.90090   Biso      1.000     O          -0.379757           
         O19       1.0000    0.73590   0.36620   0.98930   Biso      1.000     O          -0.588303           
         O20       1.0000    0.00790   0.42230   0.59330   Biso      1.000     O          -0.654039           
         O21       1.0000    0.11110   0.32380   0.56090   Biso      1.000     O          -0.624404           
         O22       1.0000    0.04480   0.67420   0.56380   Biso      1.000     O          -0.6513   
         O23       1.0000    0.15780   0.58740   0.53930   Biso      1.000     O          -0.544532           
         O24       1.0000    0.10830   0.56290   0.83410   Biso      1.000     O          -0.63947  
         O25       1.0000    0.69200   0.51120   0.40090   Biso      1.000     O          -0.379753           
         O26       1.0000    0.73590   0.63380   0.48930   Biso      1.000     O          -0.588303           
         O27       1.0000    0.00790   0.57770   0.09330   Biso      1.000     O          -0.654039           
         O28       1.0000    0.11110   0.67620   0.06090   Biso      1.000     O          -0.624405           
         O29       1.0000    0.04480   0.32580   0.06380   Biso      1.000     O          -0.6512979999999999           
         O30       1.0000    0.15780   0.41260   0.03930   Biso      1.000     O          -0.5445260000000001           
         O31       1.0000    0.19120   0.57140   0.40400   Biso      1.000     O          -0.599134           
         O32       1.0000    0.80880   0.57140   0.09600   Biso      1.000     O          -0.5991350000000001 