
##########################################################################
#               Crystallographic Information Format file
#               Produced by PyCifRW module
#
#  This is a CIF file.  CIF has been adopted by the International
#  Union of Crystallography as the standard for data archiving and
#  transmission.
#
#  For information on this file format, follow the CIF links at
#  http://www.iucr.org
##########################################################################

data_image0

_cell_length_a                          15.837
_cell_length_b                          10.568
_cell_length_c                          21.099
_cell_angle_alpha                       90
_cell_angle_beta                        107.098
_cell_angle_gamma                       90
_symmetry_space_group_name_H-M          'P 1'
_symmetry_int_tables_number             1
loop_
  _symmetry_equiv_pos_as_xyz
         'x, y, z' 
loop_
  _atom_site_label
  _atom_site_occupancy
  _atom_site_fract_x
  _atom_site_fract_y
  _atom_site_fract_z
  _atom_site_thermal_displace_type
  _atom_site_B_iso_or_equiv
  _atom_site_type_symbol
  _atom_site_charge
         C1        1.0000    0.18790   0.39640   0.86650   Biso      1.000     C          -0.17677400000000001          
         C2        1.0000    0.03640   0.78300   0.67290   Biso      1.000     C          -0.162341           
         C3        1.0000    0.03640   0.21700   0.17290   Biso      1.000     C          -0.16234300000000002          
         C4        1.0000    0.21570   0.46430   0.82080   Biso      1.000     C          0.12032000000000001           
         C5        1.0000    0.98750   0.36080   0.08340   Biso      1.000     C          -0.17369  
         C6        1.0000    0.29310   0.56810   0.30920   Biso      1.000     C          -0.169954           
         C7        1.0000    0.18790   0.60360   0.36650   Biso      1.000     C          -0.17677400000000001          
         C8        1.0000    0.05210   0.67680   0.64110   Biso      1.000     C          0.118816  
         C9        1.0000    0.15880   0.57520   0.78600   Biso      1.000     C          -0.18010299999999999          
         C10       1.0000    0.13500   0.59940   0.66610   Biso      1.000     C          -0.180565           
         C11       1.0000    0.34650   0.96590   0.65250   Biso      1.000     C          0.588266  
         C12       1.0000    0.98750   0.63920   0.58340   Biso      1.000     C          -0.173689           
         C13       1.0000    0.96010   0.14550   0.14860   Biso      1.000     C          -0.096663           
         C14       1.0000    0.91130   0.29190   0.05870   Biso      1.000     C          -0.096153           
         C15       1.0000    0.33280   0.88960   0.70870   Biso      1.000     C          0.024978  
         C16       1.0000    0.25160   0.72620   0.74590   Biso      1.000     C          0.192022  
         C17       1.0000    0.38530   0.91170   0.77340   Biso      1.000     C          -0.114264           
         C18       1.0000    0.30270   0.75010   0.80940   Biso      1.000     C          -0.199676           
         C19       1.0000    0.36890   0.84280   0.82410   Biso      1.000     C          0.006022  
         C20       1.0000    0.42150   0.86500   0.89580   Biso      1.000     C          0.6725300000000001  
         C21       1.0000    0.81210   0.60360   0.13350   Biso      1.000     C          -0.176775           
         C22       1.0000    0.25160   0.27380   0.24590   Biso      1.000     C          0.192022  
         C23       1.0000    0.03990   0.14550   0.35140   Biso      1.000     C          -0.096665           
         C24       1.0000    0.26740   0.79800   0.69560   Biso      1.000     C          -0.20709  
         C25       1.0000    0.08870   0.29190   0.44130   Biso      1.000     C          -0.09615499999999999          
         C26       1.0000    0.29310   0.43190   0.80920   Biso      1.000     C          -0.169943           
         C27       1.0000    0.96010   0.85450   0.64860   Biso      1.000     C          -0.096664           
         C28       1.0000    0.38530   0.08830   0.27340   Biso      1.000     C          -0.114265           
         C29       1.0000    0.30270   0.24990   0.30940   Biso      1.000     C          -0.199675           
         C30       1.0000    0.36890   0.15720   0.32410   Biso      1.000     C          0.006022  
         C31       1.0000    0.42150   0.13500   0.39580   Biso      1.000     C          0.6725300000000001  
         C32       1.0000    0.26740   0.20200   0.19560   Biso      1.000     C          -0.207094           
         C33       1.0000    0.34650   0.03410   0.15250   Biso      1.000     C          0.5882649999999999  
         C34       1.0000    0.78430   0.53570   0.17920   Biso      1.000     C          0.12032000000000001           
         C35       1.0000    0.96360   0.21700   0.32710   Biso      1.000     C          -0.162341           
         C36       1.0000    0.01250   0.36080   0.41660   Biso      1.000     C          -0.17368599999999998          
         C37       1.0000    0.70690   0.56810   0.19080   Biso      1.000     C          -0.169944           
         C38       1.0000    0.74840   0.27380   0.25410   Biso      1.000     C          0.192023  
         C39       1.0000    0.62220   0.83110   0.06780   Biso      1.000     C          0.659552  
         C40       1.0000    0.81580   0.89100   0.56290   Biso      1.000     C          0.580052  
         C41       1.0000    0.13500   0.40060   0.16610   Biso      1.000     C          -0.180565           
         C42       1.0000    0.15880   0.42480   0.28600   Biso      1.000     C          -0.180104           
         C43       1.0000    0.31910   0.26790   0.89170   Biso      1.000     C          -0.021799000000000002         
         C44       1.0000    0.05210   0.32320   0.14110   Biso      1.000     C          0.118815  
         C45       1.0000    0.89730   0.81730   0.59060   Biso      1.000     C          -0.029189           
         C46       1.0000    0.23920   0.29900   0.90240   Biso      1.000     C          -0.07771900000000001          
         C47       1.0000    0.34530   0.33320   0.84420   Biso      1.000     C          -0.091046           
         C48       1.0000    0.21570   0.53570   0.32080   Biso      1.000     C          0.12032899999999999           
         C49       1.0000    0.91130   0.70810   0.55870   Biso      1.000     C          -0.09615  
         C50       1.0000    0.37780   0.16890   0.93220   Biso      1.000     C          0.659552  
         C51       1.0000    0.65470   0.66680   0.15580   Biso      1.000     C          -0.091049           
         C52       1.0000    0.34530   0.66680   0.34420   Biso      1.000     C          -0.091047           
         C53       1.0000    0.33280   0.11040   0.20870   Biso      1.000     C          0.024981  
         C54       1.0000    0.96360   0.78300   0.82710   Biso      1.000     C          -0.16234400000000002          
         C55       1.0000    0.94790   0.32320   0.35890   Biso      1.000     C          0.118815  
         C56       1.0000    0.78430   0.46430   0.67920   Biso      1.000     C          0.120316  
         C57       1.0000    0.84120   0.42480   0.21400   Biso      1.000     C          -0.18010299999999999          
         C58       1.0000    0.86500   0.40060   0.33390   Biso      1.000     C          -0.180565           
         C59       1.0000    0.23920   0.70100   0.40240   Biso      1.000     C          -0.07771900000000001          
         C60       1.0000    0.10270   0.18270   0.40940   Biso      1.000     C          -0.029188           
         C61       1.0000    0.94790   0.67680   0.85890   Biso      1.000     C          0.118816  
         C62       1.0000    0.84120   0.57520   0.71400   Biso      1.000     C          -0.18010199999999998          
         C63       1.0000    0.86500   0.59940   0.83390   Biso      1.000     C          -0.180565           
         C64       1.0000    0.65350   0.03410   0.34750   Biso      1.000     C          0.5882649999999999  
         C65       1.0000    0.57850   0.86500   0.60420   Biso      1.000     C          0.672531  
         C66       1.0000    0.65350   0.96590   0.84750   Biso      1.000     C          0.588266  
         C67       1.0000    0.63110   0.84280   0.67590   Biso      1.000     C          0.006019  
         C68       1.0000    0.73260   0.20200   0.30440   Biso      1.000     C          -0.20709299999999997          
         C69       1.0000    0.73260   0.79800   0.80440   Biso      1.000     C          -0.207096           
         C70       1.0000    0.69730   0.75010   0.69060   Biso      1.000     C          -0.199681           
         C71       1.0000    0.66720   0.88960   0.79130   Biso      1.000     C          0.024980000000000002          
         C72       1.0000    0.66720   0.11040   0.29130   Biso      1.000     C          0.024981  
         C73       1.0000    0.01250   0.63920   0.91660   Biso      1.000     C          -0.17369  
         C74       1.0000    0.74840   0.72620   0.75410   Biso      1.000     C          0.192028  
         C75       1.0000    0.70690   0.43190   0.69080   Biso      1.000     C          -0.169943           
         C76       1.0000    0.37780   0.83110   0.43220   Biso      1.000     C          0.659555  
         C77       1.0000    0.76080   0.70100   0.09760   Biso      1.000     C          -0.07772000000000001          
         C78       1.0000    0.18420   0.10900   0.43710   Biso      1.000     C          0.5800529999999999  
         C79       1.0000    0.62220   0.16890   0.56780   Biso      1.000     C          0.659556  
         C80       1.0000    0.18420   0.89100   0.93710   Biso      1.000     C          0.58004   
         C81       1.0000    0.89730   0.18270   0.09060   Biso      1.000     C          -0.029187           
         C82       1.0000    0.61470   0.08830   0.22660   Biso      1.000     C          -0.11426300000000002          
         C83       1.0000    0.68090   0.26790   0.60830   Biso      1.000     C          -0.021797999999999998         
         C84       1.0000    0.69730   0.24990   0.19060   Biso      1.000     C          -0.199674           
         C85       1.0000    0.31910   0.73210   0.39170   Biso      1.000     C          -0.021796           
         C86       1.0000    0.81210   0.39640   0.63350   Biso      1.000     C          -0.176771           
         C87       1.0000    0.61470   0.91170   0.72660   Biso      1.000     C          -0.11426199999999999          
         C88       1.0000    0.10270   0.81730   0.90940   Biso      1.000     C          -0.029189999999999997         
         C89       1.0000    0.76080   0.29900   0.59760   Biso      1.000     C          -0.07772000000000001          
         C90       1.0000    0.63110   0.15720   0.17590   Biso      1.000     C          0.006022  
         C91       1.0000    0.65470   0.33320   0.65580   Biso      1.000     C          -0.091047           
         C92       1.0000    0.57850   0.13500   0.10420   Biso      1.000     C          0.672529  
         C93       1.0000    0.81580   0.10900   0.06290   Biso      1.000     C          0.580045  
         C94       1.0000    0.08870   0.70810   0.94130   Biso      1.000     C          -0.096152           
         C95       1.0000    0.03990   0.85450   0.85140   Biso      1.000     C          -0.096661           
         C96       1.0000    0.68090   0.73210   0.10830   Biso      1.000     C          -0.021797999999999998         
         H1        1.0000    0.43040   0.02860   0.28220   Biso      1.000     H          0.136157  
         H2        1.0000    0.23330   0.21560   0.15210   Biso      1.000     H          0.13061099999999998           
         H3        1.0000    0.31160   0.52400   0.27740   Biso      1.000     H          0.112605  
         H4        1.0000    0.11890   0.48930   0.16480   Biso      1.000     H          0.13054200000000002           
         H5        1.0000    0.17080   0.38910   0.13620   Biso      1.000     H          0.132602  
         H6        1.0000    0.15910   0.36000   0.31870   Biso      1.000     H          0.117769  
         H7        1.0000    0.76670   0.21560   0.34790   Biso      1.000     H          0.13061   
         H8        1.0000    0.07800   0.19200   0.21200   Biso      1.000     H          0.11290599999999999           
         H9        1.0000    0.22000   0.74540   0.43360   Biso      1.000     H          0.126209  
         H10       1.0000    0.39770   0.68820   0.33540   Biso      1.000     H          0.119676  
         H11       1.0000    0.99620   0.43370   0.06130   Biso      1.000     H          0.11196300000000001           
         H12       1.0000    0.86890   0.31860   0.02040   Biso      1.000     H          0.11873399999999999           
         H13       1.0000    0.95110   0.07340   0.17110   Biso      1.000     H          0.124625  
         H14       1.0000    0.13410   0.58410   0.37360   Biso      1.000     H          0.109876  
         H15       1.0000    0.56960   0.02860   0.21780   Biso      1.000     H          0.136157  
         H16       1.0000    0.09840   0.45380   0.26770   Biso      1.000     H          0.120268  
         H17       1.0000    0.70690   0.29680   0.15610   Biso      1.000     H          0.127166  
         H18       1.0000    0.88110   0.48930   0.33520   Biso      1.000     H          0.13054200000000002           
         H19       1.0000    0.78000   0.25460   0.56640   Biso      1.000     H          0.126208  
         H20       1.0000    0.60230   0.31180   0.66460   Biso      1.000     H          0.119675  
         H21       1.0000    0.13110   0.68140   0.97960   Biso      1.000     H          0.11873399999999999           
         H22       1.0000    0.04890   0.92660   0.82890   Biso      1.000     H          0.124624  
         H23       1.0000    0.86590   0.41590   0.62640   Biso      1.000     H          0.109875  
         H24       1.0000    0.68840   0.47600   0.72260   Biso      1.000     H          0.112604  
         H25       1.0000    0.00380   0.56630   0.93870   Biso      1.000     H          0.11196300000000001           
         H26       1.0000    0.92200   0.80800   0.78800   Biso      1.000     H          0.11290599999999999           
         H27       1.0000    0.90160   0.54620   0.73230   Biso      1.000     H          0.12026700000000001           
         H28       1.0000    0.84090   0.64000   0.68130   Biso      1.000     H          0.11776700000000001           
         H29       1.0000    0.82920   0.61090   0.86380   Biso      1.000     H          0.132603  
         H30       1.0000    0.88110   0.51070   0.83520   Biso      1.000     H          0.13054100000000002           
         H31       1.0000    0.76670   0.78440   0.84790   Biso      1.000     H          0.13061   
         H32       1.0000    0.56960   0.97140   0.71780   Biso      1.000     H          0.136156  
         H33       1.0000    0.70690   0.70320   0.65610   Biso      1.000     H          0.127166  
         H34       1.0000    0.04890   0.07340   0.32890   Biso      1.000     H          0.124623  
         H35       1.0000    0.13110   0.31860   0.47960   Biso      1.000     H          0.11873399999999999           
         H36       1.0000    0.60230   0.68820   0.16460   Biso      1.000     H          0.119675  
         H37       1.0000    0.78000   0.74540   0.06640   Biso      1.000     H          0.126208  
         H38       1.0000    0.86590   0.58410   0.12640   Biso      1.000     H          0.109875  
         H39       1.0000    0.29310   0.29680   0.34390   Biso      1.000     H          0.127167  
         H40       1.0000    0.68840   0.52400   0.22260   Biso      1.000     H          0.112604  
         H41       1.0000    0.92200   0.19200   0.28800   Biso      1.000     H          0.11290599999999999           
         H42       1.0000    0.82920   0.38910   0.36380   Biso      1.000     H          0.132602  
         H43       1.0000    0.84090   0.36000   0.18130   Biso      1.000     H          0.11776800000000001           
         H44       1.0000    0.90160   0.45380   0.23230   Biso      1.000     H          0.12026700000000001           
         H45       1.0000    0.22000   0.25460   0.93360   Biso      1.000     H          0.126208  
         H46       1.0000    0.39770   0.31180   0.83540   Biso      1.000     H          0.119676  
         H47       1.0000    0.86890   0.68140   0.52040   Biso      1.000     H          0.11873399999999999           
         H48       1.0000    0.95110   0.92660   0.67110   Biso      1.000     H          0.124623  
         H49       1.0000    0.00380   0.43370   0.43870   Biso      1.000     H          0.11196199999999999           
         H50       1.0000    0.31160   0.47600   0.77740   Biso      1.000     H          0.112604  
         H51       1.0000    0.13410   0.41590   0.87360   Biso      1.000     H          0.109876  
         H52       1.0000    0.07800   0.80800   0.71200   Biso      1.000     H          0.11290599999999999           
         H53       1.0000    0.09840   0.54620   0.76770   Biso      1.000     H          0.12026700000000001           
         H54       1.0000    0.15910   0.64000   0.81870   Biso      1.000     H          0.11776800000000001           
         H55       1.0000    0.17080   0.61090   0.63620   Biso      1.000     H          0.132602  
         H56       1.0000    0.11890   0.51070   0.66480   Biso      1.000     H          0.13054200000000002           
         H57       1.0000    0.23330   0.78440   0.65210   Biso      1.000     H          0.13061   
         H58       1.0000    0.43040   0.97140   0.78220   Biso      1.000     H          0.136158  
         H59       1.0000    0.29310   0.70320   0.84390   Biso      1.000     H          0.127167  
         H60       1.0000    0.99620   0.56630   0.56130   Biso      1.000     H          0.11196300000000001           
         N1        1.0000    0.81180   0.36900   0.26680   Biso      1.000     N          -0.010254000000000001         
         N2        1.0000    0.81180   0.63100   0.76680   Biso      1.000     N          -0.010258           
         N3        1.0000    0.18820   0.63100   0.73320   Biso      1.000     N          -0.010256           
         N4        1.0000    0.18820   0.36900   0.23320   Biso      1.000     N          -0.010256           
         O1        1.0000    0.80680   0.98850   0.59920   Biso      1.000     O          -0.38021  
         O2        1.0000    0.19320   0.01150   0.40080   Biso      1.000     O          -0.380218           
         O3        1.0000    0.39310   0.93560   0.16380   Biso      1.000     O          -0.672134           
         O4        1.0000    0.54280   0.17220   0.56460   Biso      1.000     O          -0.7019920000000001           
         O5        1.0000    0.50530   0.92180   0.59280   Biso      1.000     O          -0.6945439999999999           
         O6        1.0000    0.39010   0.17270   0.43960   Biso      1.000     O          -0.663918           
         O7        1.0000    0.23800   0.13620   0.48930   Biso      1.000     O          -0.618388           
         O8        1.0000    0.34440   0.91270   0.46130   Biso      1.000     O          -0.5766479999999999           
         O9        1.0000    0.39310   0.06440   0.66380   Biso      1.000     O          -0.672134           
         O10       1.0000    0.30980   0.92900   0.59400   Biso      1.000     O          -0.626192           
         O11       1.0000    0.19320   0.98850   0.90080   Biso      1.000     O          -0.380196           
         O12       1.0000    0.45720   0.17220   0.93540   Biso      1.000     O          -0.7019920000000001           
         O13       1.0000    0.49470   0.92180   0.90720   Biso      1.000     O          -0.694543           
         O14       1.0000    0.60990   0.17270   0.06040   Biso      1.000     O          -0.663918           
         O15       1.0000    0.76200   0.13620   0.01070   Biso      1.000     O          -0.6183890000000001           
         O16       1.0000    0.65560   0.91270   0.03870   Biso      1.000     O          -0.576641           
         O17       1.0000    0.60690   0.06440   0.83620   Biso      1.000     O          -0.672134           
         O18       1.0000    0.30980   0.07100   0.09400   Biso      1.000     O          -0.626192           
         O19       1.0000    0.69020   0.92900   0.90600   Biso      1.000     O          -0.626193           
         O20       1.0000    0.45720   0.82780   0.43540   Biso      1.000     O          -0.701993           
         O21       1.0000    0.34440   0.08730   0.96130   Biso      1.000     O          -0.576643           
         O22       1.0000    0.23800   0.86380   0.98930   Biso      1.000     O          -0.61839  
         O23       1.0000    0.39010   0.82730   0.93960   Biso      1.000     O          -0.6639189999999999           
         O24       1.0000    0.50530   0.07820   0.09280   Biso      1.000     O          -0.694543           
         O25       1.0000    0.54280   0.82780   0.06460   Biso      1.000     O          -0.701991           
         O26       1.0000    0.69020   0.07100   0.40600   Biso      1.000     O          -0.626192           
         O27       1.0000    0.80680   0.01150   0.09920   Biso      1.000     O          -0.380204           
         O28       1.0000    0.60690   0.93560   0.33620   Biso      1.000     O          -0.672134           
         O29       1.0000    0.65560   0.08730   0.53870   Biso      1.000     O          -0.5766479999999999           
         O30       1.0000    0.76200   0.86380   0.51070   Biso      1.000     O          -0.618387           
         O31       1.0000    0.60990   0.82730   0.56040   Biso      1.000     O          -0.6639189999999999           
         O32       1.0000    0.49470   0.07820   0.40720   Biso      1.000     O          -0.6945439999999999           
         Pr1       1.0000    0.60081   0.91882   0.45303   Biso      1.000     Pr          2.127039  
         Pr2       1.0000    0.39919   0.91882   0.04697   Biso      1.000     Pr          2.127035  
         Pr3       1.0000    0.60081   0.08118   0.95303   Biso      1.000     Pr          2.127034  
         Pr4       1.0000    0.39919   0.08118   0.54697   Biso      1.000     Pr          2.127037 