
##########################################################################
#               Crystallographic Information Format file
#               Produced by PyCifRW module
#
#  This is a CIF file.  CIF has been adopted by the International
#  Union of Crystallography as the standard for data archiving and
#  transmission.
#
#  For information on this file format, follow the CIF links at
#  http://www.iucr.org
##########################################################################

data_image0

_cell_length_a                          15.894
_cell_length_b                          10.491
_cell_length_c                          20.909
_cell_angle_alpha                       90
_cell_angle_beta                        107.841
_cell_angle_gamma                       90
_symmetry_space_group_name_H-M          'P 1'
_symmetry_int_tables_number             1
loop_
  _symmetry_equiv_pos_as_xyz
         'x, y, z' 
loop_
  _atom_site_label
  _atom_site_occupancy
  _atom_site_fract_x
  _atom_site_fract_y
  _atom_site_fract_z
  _atom_site_thermal_displace_type
  _atom_site_B_iso_or_equiv
  _atom_site_type_symbol
  _atom_site_charge
         C1        1.0000    0.86610   0.60250   0.83610   Biso      1.000     C          -0.179448           
         C2        1.0000    0.37120   0.84430   0.82400   Biso      1.000     C          0.0069099999999999995         
         C3        1.0000    0.16120   0.42300   0.28510   Biso      1.000     C          -0.177266           
         C4        1.0000    0.38700   0.91430   0.77220   Biso      1.000     C          -0.10580099999999999          
         C5        1.0000    0.33400   0.89190   0.70720   Biso      1.000     C          0.026010000000000002          
         C6        1.0000    0.29480   0.56720   0.30740   Biso      1.000     C          -0.170255           
         C7        1.0000    0.26850   0.80100   0.69300   Biso      1.000     C          -0.20649  
         C8        1.0000    0.25180   0.72820   0.74420   Biso      1.000     C          0.186435  
         C9        1.0000    0.81240   0.89480   0.56350   Biso      1.000     C          0.585526  
         C10       1.0000    0.21800   0.53270   0.32030   Biso      1.000     C          0.11552   
         C11       1.0000    0.30440   0.75390   0.81060   Biso      1.000     C          -0.19783599999999998          
         C12       1.0000    0.03510   0.78650   0.67240   Biso      1.000     C          -0.165222           
         C13       1.0000    0.95770   0.85680   0.64880   Biso      1.000     C          -0.09556100000000001          
         C14       1.0000    0.89410   0.82060   0.59050   Biso      1.000     C          -0.029533999999999998         
         C15       1.0000    0.32270   0.73140   0.39050   Biso      1.000     C          -0.022848           
         C16       1.0000    0.90680   0.71090   0.55820   Biso      1.000     C          -0.095559           
         C17       1.0000    0.38210   0.83290   0.43120   Biso      1.000     C          0.665557  
         C18       1.0000    0.98420   0.64100   0.58250   Biso      1.000     C          -0.176993           
         C19       1.0000    0.04960   0.68030   0.63940   Biso      1.000     C          0.11849200000000001           
         C20       1.0000    0.24450   0.70170   0.40220   Biso      1.000     C          -0.07708  
         C21       1.0000    0.19260   0.60110   0.36820   Biso      1.000     C          -0.179524           
         C22       1.0000    0.34720   0.66520   0.34250   Biso      1.000     C          -0.086507           
         C23       1.0000    0.34690   0.03160   0.14910   Biso      1.000     C          0.587253  
         C24       1.0000    0.42500   0.86730   0.89630   Biso      1.000     C          0.6761119999999999  
         C25       1.0000    0.34690   0.96840   0.64910   Biso      1.000     C          0.587253  
         C26       1.0000    0.98420   0.35900   0.08250   Biso      1.000     C          -0.176992           
         C27       1.0000    0.90680   0.28910   0.05820   Biso      1.000     C          -0.09555599999999999          
         C28       1.0000    0.89410   0.17940   0.09050   Biso      1.000     C          -0.029539           
         C29       1.0000    0.95770   0.14320   0.14880   Biso      1.000     C          -0.09556100000000001          
         C30       1.0000    0.03510   0.21350   0.17240   Biso      1.000     C          -0.165218           
         C31       1.0000    0.81240   0.10520   0.06350   Biso      1.000     C          0.5855520000000001  
         C32       1.0000    0.25180   0.27180   0.24420   Biso      1.000     C          0.186435  
         C33       1.0000    0.26850   0.19900   0.19300   Biso      1.000     C          -0.20648899999999998          
         C34       1.0000    0.19260   0.39890   0.86820   Biso      1.000     C          -0.179525           
         C35       1.0000    0.33400   0.10810   0.20720   Biso      1.000     C          0.026008  
         C36       1.0000    0.24450   0.29830   0.90220   Biso      1.000     C          -0.07708  
         C37       1.0000    0.38210   0.16710   0.93120   Biso      1.000     C          0.665564  
         C38       1.0000    0.32270   0.26860   0.89050   Biso      1.000     C          -0.022844999999999997         
         C39       1.0000    0.38700   0.08570   0.27220   Biso      1.000     C          -0.105798           
         C40       1.0000    0.34720   0.33480   0.84250   Biso      1.000     C          -0.08651  
         C41       1.0000    0.21800   0.46730   0.82030   Biso      1.000     C          0.11551700000000001           
         C42       1.0000    0.37120   0.15570   0.32400   Biso      1.000     C          0.006909  
         C43       1.0000    0.29480   0.43280   0.80740   Biso      1.000     C          -0.170248           
         C44       1.0000    0.30440   0.24610   0.31060   Biso      1.000     C          -0.19783499999999998          
         C45       1.0000    0.42500   0.13270   0.39630   Biso      1.000     C          0.676111  
         C46       1.0000    0.16120   0.57700   0.78510   Biso      1.000     C          -0.177265           
         C47       1.0000    0.13390   0.60250   0.66390   Biso      1.000     C          -0.179447           
         C48       1.0000    0.04960   0.31970   0.13940   Biso      1.000     C          0.118493  
         C49       1.0000    0.13390   0.39750   0.16390   Biso      1.000     C          -0.179448           
         C50       1.0000    0.95040   0.31970   0.36060   Biso      1.000     C          0.11848399999999999           
         C51       1.0000    0.62880   0.84430   0.67600   Biso      1.000     C          0.0069099999999999995         
         C52       1.0000    0.83880   0.42300   0.21490   Biso      1.000     C          -0.177267           
         C53       1.0000    0.61300   0.91430   0.72780   Biso      1.000     C          -0.10579200000000001          
         C54       1.0000    0.66600   0.89190   0.79280   Biso      1.000     C          0.026011000000000003          
         C55       1.0000    0.70520   0.56720   0.19260   Biso      1.000     C          -0.170256           
         C56       1.0000    0.73150   0.80100   0.80700   Biso      1.000     C          -0.206486           
         C57       1.0000    0.74820   0.72820   0.75580   Biso      1.000     C          0.186435  
         C58       1.0000    0.18760   0.89480   0.93650   Biso      1.000     C          0.585553  
         C59       1.0000    0.78200   0.53270   0.17970   Biso      1.000     C          0.11551900000000001           
         C60       1.0000    0.69560   0.75390   0.68940   Biso      1.000     C          -0.19783599999999998          
         C61       1.0000    0.96490   0.78650   0.82760   Biso      1.000     C          -0.165219           
         C62       1.0000    0.04230   0.85680   0.85120   Biso      1.000     C          -0.095559           
         C63       1.0000    0.10590   0.82060   0.90950   Biso      1.000     C          -0.029539           
         C64       1.0000    0.67730   0.73140   0.10950   Biso      1.000     C          -0.022844           
         C65       1.0000    0.09320   0.71090   0.94180   Biso      1.000     C          -0.095557           
         C66       1.0000    0.61790   0.83290   0.06880   Biso      1.000     C          0.66556   
         C67       1.0000    0.01580   0.64100   0.91750   Biso      1.000     C          -0.176992           
         C68       1.0000    0.95040   0.68030   0.86060   Biso      1.000     C          0.118494  
         C69       1.0000    0.75550   0.70170   0.09780   Biso      1.000     C          -0.077081           
         C70       1.0000    0.80740   0.60110   0.13180   Biso      1.000     C          -0.179524           
         C71       1.0000    0.65280   0.66520   0.15750   Biso      1.000     C          -0.086506           
         C72       1.0000    0.65310   0.03160   0.35090   Biso      1.000     C          0.58725   
         C73       1.0000    0.57500   0.86730   0.60370   Biso      1.000     C          0.6761010000000001  
         C74       1.0000    0.65310   0.96840   0.85090   Biso      1.000     C          0.58725   
         C75       1.0000    0.01580   0.35900   0.41750   Biso      1.000     C          -0.176988           
         C76       1.0000    0.09320   0.28910   0.44180   Biso      1.000     C          -0.095565           
         C77       1.0000    0.10590   0.17940   0.40950   Biso      1.000     C          -0.029537           
         C78       1.0000    0.04230   0.14320   0.35120   Biso      1.000     C          -0.095555           
         C79       1.0000    0.96490   0.21350   0.32760   Biso      1.000     C          -0.165213           
         C80       1.0000    0.18760   0.10520   0.43650   Biso      1.000     C          0.585536  
         C81       1.0000    0.74820   0.27180   0.25580   Biso      1.000     C          0.186435  
         C82       1.0000    0.73150   0.19900   0.30700   Biso      1.000     C          -0.206488           
         C83       1.0000    0.80740   0.39890   0.63180   Biso      1.000     C          -0.179525           
         C84       1.0000    0.66600   0.10810   0.29280   Biso      1.000     C          0.026012  
         C85       1.0000    0.75550   0.29830   0.59780   Biso      1.000     C          -0.077083           
         C86       1.0000    0.61790   0.16710   0.56880   Biso      1.000     C          0.665552  
         C87       1.0000    0.67730   0.26860   0.60950   Biso      1.000     C          -0.022844           
         C88       1.0000    0.61300   0.08570   0.22780   Biso      1.000     C          -0.105795           
         C89       1.0000    0.65280   0.33480   0.65750   Biso      1.000     C          -0.08651  
         C90       1.0000    0.78200   0.46730   0.67970   Biso      1.000     C          0.11551600000000001           
         C91       1.0000    0.62880   0.15570   0.17600   Biso      1.000     C          0.006912000000000001          
         C92       1.0000    0.70520   0.43280   0.69260   Biso      1.000     C          -0.170249           
         C93       1.0000    0.69560   0.24610   0.18940   Biso      1.000     C          -0.19783699999999999          
         C94       1.0000    0.57500   0.13270   0.10370   Biso      1.000     C          0.676103  
         C95       1.0000    0.83880   0.57700   0.71490   Biso      1.000     C          -0.177266           
         C96       1.0000    0.86610   0.39750   0.33610   Biso      1.000     C          -0.179448           
         Gd1       1.0000    0.60062   0.92182   0.45446   Biso      1.000     Gd          2.081604  
         Gd2       1.0000    0.60062   0.07818   0.95446   Biso      1.000     Gd          2.081609  
         Gd3       1.0000    0.39937   0.07818   0.54554   Biso      1.000     Gd          2.0816220000000003  
         Gd4       1.0000    0.39937   0.92182   0.04554   Biso      1.000     Gd          2.081627  
         H1        1.0000    0.16860   0.38430   0.13350   Biso      1.000     H          0.132645  
         H2        1.0000    0.14090   0.57960   0.37770   Biso      1.000     H          0.11135899999999999           
         H3        1.0000    0.85910   0.57960   0.12230   Biso      1.000     H          0.11135899999999999           
         H4        1.0000    0.88150   0.51280   0.83780   Biso      1.000     H          0.130744  
         H5        1.0000    0.77390   0.74920   0.06700   Biso      1.000     H          0.12587   
         H6        1.0000    0.83140   0.61570   0.86650   Biso      1.000     H          0.13264700000000001           
         H7        1.0000    0.00800   0.56730   0.93970   Biso      1.000     H          0.113981  
         H8        1.0000    0.13680   0.68360   0.98010   Biso      1.000     H          0.117572  
         H9        1.0000    0.60070   0.68620   0.16650   Biso      1.000     H          0.119768  
         H10       1.0000    0.05110   0.92820   0.82770   Biso      1.000     H          0.122333  
         H11       1.0000    0.11850   0.48720   0.16220   Biso      1.000     H          0.130743  
         H12       1.0000    0.88150   0.48720   0.33780   Biso      1.000     H          0.130744  
         H13       1.0000    0.83140   0.38430   0.36650   Biso      1.000     H          0.13264700000000001           
         H14       1.0000    0.92200   0.81230   0.78850   Biso      1.000     H          0.11423900000000001           
         H15       1.0000    0.68830   0.52380   0.22540   Biso      1.000     H          0.110956  
         H16       1.0000    0.70590   0.29050   0.15400   Biso      1.000     H          0.131277  
         H17       1.0000    0.00800   0.43270   0.43970   Biso      1.000     H          0.113981  
         H18       1.0000    0.13680   0.31640   0.48010   Biso      1.000     H          0.11757100000000001           
         H19       1.0000    0.83820   0.35760   0.18200   Biso      1.000     H          0.117029  
         H20       1.0000    0.89920   0.45280   0.23320   Biso      1.000     H          0.12115999999999999           
         H21       1.0000    0.05110   0.07180   0.32770   Biso      1.000     H          0.12233499999999999           
         H22       1.0000    0.56800   0.97460   0.71880   Biso      1.000     H          0.137793  
         H23       1.0000    0.92200   0.18770   0.28850   Biso      1.000     H          0.114238  
         H24       1.0000    0.70590   0.70950   0.65400   Biso      1.000     H          0.131275  
         H25       1.0000    0.85910   0.42040   0.62230   Biso      1.000     H          0.11135899999999999           
         H26       1.0000    0.76550   0.21250   0.35130   Biso      1.000     H          0.13172799999999998           
         H27       1.0000    0.77390   0.25080   0.56700   Biso      1.000     H          0.125869  
         H28       1.0000    0.60070   0.31380   0.66650   Biso      1.000     H          0.119768  
         H29       1.0000    0.56800   0.02540   0.21880   Biso      1.000     H          0.137795  
         H30       1.0000    0.68830   0.47620   0.72540   Biso      1.000     H          0.110956  
         H31       1.0000    0.83820   0.64240   0.68200   Biso      1.000     H          0.117028  
         H32       1.0000    0.76550   0.78750   0.85130   Biso      1.000     H          0.131727  
         H33       1.0000    0.22610   0.74920   0.43300   Biso      1.000     H          0.125869  
         H34       1.0000    0.11850   0.51280   0.66220   Biso      1.000     H          0.130743  
         H35       1.0000    0.99200   0.56730   0.56030   Biso      1.000     H          0.113981  
         H36       1.0000    0.99200   0.43270   0.06030   Biso      1.000     H          0.113981  
         H37       1.0000    0.86320   0.31640   0.01990   Biso      1.000     H          0.117573  
         H38       1.0000    0.94890   0.07180   0.17230   Biso      1.000     H          0.122332  
         H39       1.0000    0.07800   0.18770   0.21150   Biso      1.000     H          0.11423900000000001           
         H40       1.0000    0.14090   0.42040   0.87770   Biso      1.000     H          0.11135899999999999           
         H41       1.0000    0.23450   0.21250   0.14870   Biso      1.000     H          0.131727  
         H42       1.0000    0.22610   0.25080   0.93300   Biso      1.000     H          0.12587   
         H43       1.0000    0.16860   0.61570   0.63350   Biso      1.000     H          0.132645  
         H44       1.0000    0.43200   0.02540   0.28120   Biso      1.000     H          0.137793  
         H45       1.0000    0.31170   0.47620   0.77460   Biso      1.000     H          0.110956  
         H46       1.0000    0.16180   0.64240   0.81800   Biso      1.000     H          0.117028  
         H47       1.0000    0.29410   0.29050   0.34600   Biso      1.000     H          0.131276  
         H48       1.0000    0.39930   0.31380   0.83350   Biso      1.000     H          0.119768  
         H49       1.0000    0.29410   0.70950   0.84600   Biso      1.000     H          0.131276  
         H50       1.0000    0.86320   0.68360   0.51990   Biso      1.000     H          0.117572  
         H51       1.0000    0.39930   0.68620   0.33350   Biso      1.000     H          0.119768  
         H52       1.0000    0.10080   0.54720   0.76680   Biso      1.000     H          0.12115999999999999           
         H53       1.0000    0.94890   0.92820   0.67230   Biso      1.000     H          0.122334  
         H54       1.0000    0.07800   0.81230   0.71150   Biso      1.000     H          0.114238  
         H55       1.0000    0.89920   0.54720   0.73320   Biso      1.000     H          0.12115899999999999           
         H56       1.0000    0.23450   0.78750   0.64870   Biso      1.000     H          0.13172799999999998           
         H57       1.0000    0.16180   0.35760   0.31800   Biso      1.000     H          0.117028  
         H58       1.0000    0.10080   0.45280   0.26680   Biso      1.000     H          0.12115899999999999           
         H59       1.0000    0.43200   0.97460   0.78120   Biso      1.000     H          0.137793  
         H60       1.0000    0.31170   0.52380   0.27460   Biso      1.000     H          0.110956  
         N1        1.0000    0.18810   0.63350   0.73160   Biso      1.000     N          0.0024920000000000003         
         N2        1.0000    0.81190   0.36650   0.26840   Biso      1.000     N          0.002503  
         N3        1.0000    0.18810   0.36650   0.23160   Biso      1.000     N          0.002497  
         N4        1.0000    0.81190   0.63350   0.76840   Biso      1.000     N          0.0025039999999999997         
         O1        1.0000    0.60510   0.93350   0.33880   Biso      1.000     O          -0.66745  
         O2        1.0000    0.65100   0.91270   0.03860   Biso      1.000     O          -0.584942           
         O3        1.0000    0.60720   0.16870   0.05930   Biso      1.000     O          -0.66813  
         O4        1.0000    0.50090   0.07950   0.09250   Biso      1.000     O          -0.679951           
         O5        1.0000    0.68840   0.07010   0.40950   Biso      1.000     O          -0.611477           
         O6        1.0000    0.19640   0.00930   0.39960   Biso      1.000     O          -0.38756599999999997          
         O7        1.0000    0.53930   0.83140   0.06790   Biso      1.000     O          -0.70031  
         O8        1.0000    0.24330   0.86640   0.98920   Biso      1.000     O          -0.624653           
         O9        1.0000    0.53930   0.16860   0.56790   Biso      1.000     O          -0.700308           
         O10       1.0000    0.80360   0.99070   0.60040   Biso      1.000     O          -0.38753699999999996          
         O11       1.0000    0.31160   0.92990   0.59050   Biso      1.000     O          -0.611463           
         O12       1.0000    0.49910   0.92050   0.90750   Biso      1.000     O          -0.679953           
         O13       1.0000    0.39280   0.83130   0.94070   Biso      1.000     O          -0.66814  
         O14       1.0000    0.34900   0.08730   0.96140   Biso      1.000     O          -0.584954           
         O15       1.0000    0.46070   0.16860   0.93210   Biso      1.000     O          -0.700318           
         O16       1.0000    0.39490   0.06650   0.66120   Biso      1.000     O          -0.667463           
         O17       1.0000    0.39490   0.93350   0.16120   Biso      1.000     O          -0.6674640000000001           
         O18       1.0000    0.46070   0.83140   0.43210   Biso      1.000     O          -0.7003159999999999           
         O19       1.0000    0.34900   0.91270   0.46140   Biso      1.000     O          -0.584943           
         O20       1.0000    0.39280   0.16870   0.44070   Biso      1.000     O          -0.668142           
         O21       1.0000    0.49910   0.07950   0.40750   Biso      1.000     O          -0.679952           
         O22       1.0000    0.31160   0.07010   0.09050   Biso      1.000     O          -0.611462           
         O23       1.0000    0.80360   0.00930   0.10040   Biso      1.000     O          -0.387577           
         O24       1.0000    0.75670   0.13360   0.01080   Biso      1.000     O          -0.624629           
         O25       1.0000    0.24330   0.13360   0.48920   Biso      1.000     O          -0.624656           
         O26       1.0000    0.19640   0.99070   0.89960   Biso      1.000     O          -0.38759499999999997          
         O27       1.0000    0.68840   0.92990   0.90950   Biso      1.000     O          -0.611475           
         O28       1.0000    0.50090   0.92050   0.59250   Biso      1.000     O          -0.67995  
         O29       1.0000    0.60720   0.83130   0.55930   Biso      1.000     O          -0.668132           
         O30       1.0000    0.65100   0.08730   0.53860   Biso      1.000     O          -0.584928           
         O31       1.0000    0.60510   0.06650   0.83880   Biso      1.000     O          -0.66745  
         O32       1.0000    0.75670   0.86640   0.51080   Biso      1.000     O          -0.624632 