
##########################################################################
#               Crystallographic Information Format file
#               Produced by PyCifRW module
#
#  This is a CIF file.  CIF has been adopted by the International
#  Union of Crystallography as the standard for data archiving and
#  transmission.
#
#  For information on this file format, follow the CIF links at
#  http://www.iucr.org
##########################################################################

data_image0

_cell_length_a                          9.0808
_cell_length_b                          9.641
_cell_length_c                          11.6416
_cell_angle_alpha                       108.051
_cell_angle_beta                        94.17
_cell_angle_gamma                       108.174
_symmetry_space_group_name_H-M          'P 1'
_symmetry_int_tables_number             1
loop_
  _symmetry_equiv_pos_as_xyz
         'x, y, z' 
loop_
  _atom_site_label
  _atom_site_occupancy
  _atom_site_fract_x
  _atom_site_fract_y
  _atom_site_fract_z
  _atom_site_thermal_displace_type
  _atom_site_B_iso_or_equiv
  _atom_site_type_symbol
  _atom_site_charge
         C1        1.0000    0.14540   0.44040   0.10050   Biso      1.000     C          -0.037469999999999996         
         C2        1.0000    0.71190   0.49590   0.92940   Biso      1.000     C          -0.230292           
         C3        1.0000    0.55540   0.22090   0.92500   Biso      1.000     C          0.641983  
         C4        1.0000    0.81550   0.10570   0.26610   Biso      1.000     C          0.588769  
         C5        1.0000    0.68680   0.34090   0.90150   Biso      1.000     C          0.040978  
         C6        1.0000    0.87880   0.19560   0.40210   Biso      1.000     C          -0.023657           
         C7        1.0000    0.85460   0.55960   0.89950   Biso      1.000     C          -0.037462999999999996         
         C8        1.0000    0.98490   0.35190   0.65250   Biso      1.000     C          0.128752  
         C9        1.0000    0.87320   0.38780   0.58860   Biso      1.000     C          -0.1804   
         C10       1.0000    0.81930   0.30880   0.46540   Biso      1.000     C          -0.059012           
         C11       1.0000    0.95600   0.75910   0.41060   Biso      1.000     C          -0.172965           
         C12       1.0000    0.00710   0.83430   0.53610   Biso      1.000     C          -0.06633700000000001          
         C13       1.0000    0.18070   0.69120   0.53460   Biso      1.000     C          -0.059026           
         C14       1.0000    0.12680   0.61220   0.41140   Biso      1.000     C          -0.18038800000000002          
         C15       1.0000    0.01510   0.64810   0.34750   Biso      1.000     C          0.128755  
         C16       1.0000    0.04360   0.43650   0.78980   Biso      1.000     C          -0.193617           
         C17       1.0000    0.12120   0.80440   0.59790   Biso      1.000     C          -0.023648           
         C18       1.0000    0.31320   0.65910   0.09850   Biso      1.000     C          0.040971  
         C19       1.0000    0.18450   0.89430   0.73390   Biso      1.000     C          0.58877   
         C20       1.0000    0.44460   0.77910   0.07500   Biso      1.000     C          0.641984  
         C21       1.0000    0.28810   0.50410   0.07060   Biso      1.000     C          -0.23027899999999998          
         C22       1.0000    0.99290   0.16570   0.46390   Biso      1.000     C          -0.066334           
         C23       1.0000    0.04400   0.24090   0.58940   Biso      1.000     C          -0.172957           
         C24       1.0000    0.05510   0.26940   0.07370   Biso      1.000     C          0.674316  
         C25       1.0000    0.95640   0.56350   0.21020   Biso      1.000     C          -0.193617           
         C26       1.0000    0.94490   0.73060   0.92630   Biso      1.000     C          0.674315  
         H1        1.0000    0.63300   0.54200   0.97400   Biso      1.000     H          0.15316300000000002           
         H2        1.0000    0.72300   0.34700   0.43200   Biso      1.000     H          0.09766699999999999           
         H3        1.0000    0.11600   0.52500   0.80900   Biso      1.000     H          0.151249  
         H4        1.0000    0.80500   0.43700   0.63100   Biso      1.000     H          0.11465299999999999           
         H5        1.0000    0.07700   0.10500   0.43600   Biso      1.000     H          0.109984  
         H6        1.0000    0.91300   0.64300   0.17900   Biso      1.000     H          0.121308  
         H7        1.0000    0.08700   0.35700   0.82100   Biso      1.000     H          0.121308  
         H8        1.0000    0.27700   0.65300   0.56800   Biso      1.000     H          0.09766799999999999           
         H9        1.0000    0.36700   0.45800   0.02600   Biso      1.000     H          0.153162  
         H10       1.0000    0.88400   0.47500   0.19100   Biso      1.000     H          0.151249  
         H11       1.0000    0.19500   0.56300   0.36900   Biso      1.000     H          0.114652  
         H12       1.0000    0.92300   0.89500   0.56400   Biso      1.000     H          0.109984  
         H13       1.0000    0.12500   0.23700   0.65300   Biso      1.000     H          0.118584  
         H14       1.0000    0.87500   0.76300   0.34700   Biso      1.000     H          0.118584  
         N1        1.0000    0.91010   0.44130   0.85430   Biso      1.000     N          0.203486  
         N2        1.0000    0.08990   0.55870   0.14570   Biso      1.000     N          0.203486  
         N3        1.0000    0.80810   0.30480   0.85370   Biso      1.000     N          -0.270776           
         N4        1.0000    0.19190   0.69520   0.14630   Biso      1.000     N          -0.270776           
         O1        1.0000    0.91140   0.22560   0.07580   Biso      1.000     O          -0.627451           
         O2        1.0000    0.30120   0.88090   0.78710   Biso      1.000     O          -0.638146           
         O3        1.0000    0.11680   0.98390   0.79440   Biso      1.000     O          -0.645714           
         O4        1.0000    0.42250   0.89070   0.05070   Biso      1.000     O          -0.7534569999999999           
         O5        1.0000    0.86420   0.81630   0.95320   Biso      1.000     O          -0.730537           
         O6        1.0000    0.57600   0.76070   0.07790   Biso      1.000     O          -0.602528           
         O7        1.0000    0.42400   0.23930   0.92210   Biso      1.000     O          -0.602528           
         O8        1.0000    0.08860   0.77440   0.92420   Biso      1.000     O          -0.627451           
         O9        1.0000    0.57750   0.10930   0.94930   Biso      1.000     O          -0.7534569999999999           
         O10       1.0000    0.69880   0.11910   0.21290   Biso      1.000     O          -0.638147           
         O11       1.0000    0.88320   0.01610   0.20560   Biso      1.000     O          -0.645713           
         O12       1.0000    0.13580   0.18370   0.04680   Biso      1.000     O          -0.730538           
         Tb1       1.0000    0.72110   0.97124   0.00848   Biso      1.000     Tb          2.08745   
         Tb2       1.0000    0.27890   0.02876   0.99152   Biso      1.000     Tb          2.08745 