
##########################################################################
#               Crystallographic Information Format file
#               Produced by PyCifRW module
#
#  This is a CIF file.  CIF has been adopted by the International
#  Union of Crystallography as the standard for data archiving and
#  transmission.
#
#  For information on this file format, follow the CIF links at
#  http://www.iucr.org
##########################################################################

data_image0

_cell_length_a                          9.1283
_cell_length_b                          9.6603
_cell_length_c                          11.5482
_cell_angle_alpha                       106.829
_cell_angle_beta                        93.772
_cell_angle_gamma                       108.027
_symmetry_space_group_name_H-M          'P 1'
_symmetry_int_tables_number             1
loop_
  _symmetry_equiv_pos_as_xyz
         'x, y, z' 
loop_
  _atom_site_label
  _atom_site_occupancy
  _atom_site_fract_x
  _atom_site_fract_y
  _atom_site_fract_z
  _atom_site_thermal_displace_type
  _atom_site_B_iso_or_equiv
  _atom_site_type_symbol
  _atom_site_charge
         C1        1.0000    0.31180   0.15480   0.09960   Biso      1.000     C          0.044722000000000005          
         C2        1.0000    0.04000   0.74100   0.58930   Biso      1.000     C          -0.156551           
         C3        1.0000    0.87200   0.88600   0.58760   Biso      1.000     C          -0.16155899999999998          
         C4        1.0000    0.12800   0.11400   0.41240   Biso      1.000     C          -0.16155799999999998          
         C5        1.0000    0.55550   0.72460   0.92300   Biso      1.000     C          0.6348739999999999  
         C6        1.0000    0.18200   0.19420   0.53540   Biso      1.000     C          -0.092474           
         C7        1.0000    0.18950   0.39960   0.73080   Biso      1.000     C          0.5826060000000001  
         C8        1.0000    0.01510   0.14670   0.34850   Biso      1.000     C          0.124194  
         C9        1.0000    0.94650   0.22830   0.92630   Biso      1.000     C          0.658259  
         C10       1.0000    0.87800   0.69600   0.40160   Biso      1.000     C          -0.02349  
         C11       1.0000    0.95890   0.06110   0.21210   Biso      1.000     C          -0.18725999999999998          
         C12       1.0000    0.14680   0.93890   0.09990   Biso      1.000     C          -0.032314999999999997         
         C13       1.0000    0.68820   0.84520   0.90040   Biso      1.000     C          0.044725  
         C14       1.0000    0.28640   0.00080   0.06960   Biso      1.000     C          -0.231584           
         C15       1.0000    0.12200   0.30400   0.59840   Biso      1.000     C          -0.023482           
         C16       1.0000    0.98900   0.66500   0.46560   Biso      1.000     C          -0.092415           
         C17       1.0000    0.71360   0.99920   0.93040   Biso      1.000     C          -0.231606           
         C18       1.0000    0.44450   0.27540   0.07700   Biso      1.000     C          0.6348739999999999  
         C19       1.0000    0.85320   0.06110   0.90010   Biso      1.000     C          -0.032295           
         C20       1.0000    0.96000   0.25900   0.41070   Biso      1.000     C          -0.15654500000000002          
         C21       1.0000    0.04110   0.93890   0.78790   Biso      1.000     C          -0.18725999999999998          
         C22       1.0000    0.01100   0.33500   0.53440   Biso      1.000     C          -0.092416           
         C23       1.0000    0.05350   0.77170   0.07370   Biso      1.000     C          0.658262  
         C24       1.0000    0.98490   0.85330   0.65150   Biso      1.000     C          0.124201  
         C25       1.0000    0.81050   0.60040   0.26920   Biso      1.000     C          0.5826100000000001  
         C26       1.0000    0.81800   0.80580   0.46460   Biso      1.000     C          -0.092468           
         Gd1       1.0000    0.27849   0.52876   0.99084   Biso      1.000     Gd          2.0655080000000003  
         Gd2       1.0000    0.72151   0.47124   0.00916   Biso      1.000     Gd          2.0655069999999998  
         H1        1.0000    0.73769   0.82574   0.42240   Biso      1.000     H          0.113809  
         H2        1.0000    0.11504   0.71586   0.63240   Biso      1.000     H          0.120485  
         H3        1.0000    0.03200   0.59032   0.42385   Biso      1.000     H          0.112782  
         H4        1.0000    0.64652   0.05181   0.96544   Biso      1.000     H          0.158125  
         H5        1.0000    0.10203   0.88696   0.82254   Biso      1.000     H          0.1311    
         H6        1.0000    0.11081   0.04529   0.80020   Biso      1.000     H          0.142154  
         H7        1.0000    0.16655   0.03569   0.37113   Biso      1.000     H          0.113474  
         H8        1.0000    0.83345   0.96431   0.62887   Biso      1.000     H          0.113474  
         H9        1.0000    0.96800   0.40968   0.57615   Biso      1.000     H          0.11278099999999999           
         H10       1.0000    0.88496   0.28414   0.36760   Biso      1.000     H          0.120485  
         H11       1.0000    0.35348   0.94819   0.03456   Biso      1.000     H          0.158123  
         H12       1.0000    0.88919   0.95471   0.19980   Biso      1.000     H          0.142154  
         H13       1.0000    0.26231   0.17426   0.57760   Biso      1.000     H          0.11380799999999999           
         H14       1.0000    0.89797   0.11304   0.17746   Biso      1.000     H          0.1311    
         N1        1.0000    0.09200   0.05640   0.14720   Biso      1.000     N          0.197011  
         N2        1.0000    0.19020   0.19070   0.14570   Biso      1.000     N          -0.25913200000000003          
         N3        1.0000    0.90800   0.94360   0.85280   Biso      1.000     N          0.19701   
         N4        1.0000    0.80980   0.80930   0.85430   Biso      1.000     N          -0.25913200000000003          
         O1        1.0000    0.86910   0.31860   0.95670   Biso      1.000     O          -0.7325020000000001           
         O2        1.0000    0.69600   0.61700   0.21460   Biso      1.000     O          -0.634628           
         O3        1.0000    0.57720   0.61020   0.94870   Biso      1.000     O          -0.762029           
         O4        1.0000    0.88100   0.51390   0.21060   Biso      1.000     O          -0.637219           
         O5        1.0000    0.08880   0.26860   0.92050   Biso      1.000     O          -0.615422           
         O6        1.0000    0.57290   0.25620   0.08060   Biso      1.000     O          -0.580534           
         O7        1.0000    0.30400   0.38300   0.78540   Biso      1.000     O          -0.634628           
         O8        1.0000    0.91120   0.73140   0.07950   Biso      1.000     O          -0.6154229999999999           
         O9        1.0000    0.11900   0.48610   0.78940   Biso      1.000     O          -0.637219           
         O10       1.0000    0.42280   0.38980   0.05130   Biso      1.000     O          -0.762029           
         O11       1.0000    0.13090   0.68140   0.04330   Biso      1.000     O          -0.732503           
         O12       1.0000    0.42710   0.74380   0.91940   Biso      1.000     O          -0.580534 