
##########################################################################
#               Crystallographic Information Format file
#               Produced by PyCifRW module
#
#  This is a CIF file.  CIF has been adopted by the International
#  Union of Crystallography as the standard for data archiving and
#  transmission.
#
#  For information on this file format, follow the CIF links at
#  http://www.iucr.org
##########################################################################

data_image0

_cell_length_a                          15.701
_cell_length_b                          14.964
_cell_length_c                          17.339
_cell_angle_alpha                       90
_cell_angle_beta                        115.096
_cell_angle_gamma                       90
_symmetry_space_group_name_H-M          'P 1'
_symmetry_int_tables_number             1
loop_
  _symmetry_equiv_pos_as_xyz
         'x, y, z' 
loop_
  _atom_site_label
  _atom_site_occupancy
  _atom_site_fract_x
  _atom_site_fract_y
  _atom_site_fract_z
  _atom_site_thermal_displace_type
  _atom_site_B_iso_or_equiv
  _atom_site_type_symbol
  _atom_site_charge
         C1        1.0000    0.11540   0.17020   0.75420   Biso      1.000     C          0.594109  
         C2        1.0000    0.61540   0.32980   0.25420   Biso      1.000     C          0.594109  
         C3        1.0000    0.88360   0.06700   0.25070   Biso      1.000     C          0.611389  
         C4        1.0000    0.81120   0.13060   0.25320   Biso      1.000     C          -0.088551           
         C5        1.0000    0.76120   0.18080   0.18220   Biso      1.000     C          -0.091123           
         C6        1.0000    0.69810   0.24650   0.18090   Biso      1.000     C          -0.118303           
         C7        1.0000    0.68400   0.25890   0.25340   Biso      1.000     C          0.005033  
         C8        1.0000    0.72920   0.20650   0.32390   Biso      1.000     C          -0.20774  
         C9        1.0000    0.79150   0.14290   0.32350   Biso      1.000     C          0.155887  
         C10       1.0000    0.83140   0.99670   0.39790   Biso      1.000     C          -0.080439           
         C11       1.0000    0.86990   0.97180   0.47870   Biso      1.000     C          -0.045632           
         C12       1.0000    0.87460   0.11530   0.47700   Biso      1.000     C          0.111617  
         C13       1.0000    0.61640   0.56700   0.24930   Biso      1.000     C          0.611389  
         C14       1.0000    0.38360   0.43300   0.75070   Biso      1.000     C          0.611389  
         C15       1.0000    0.31120   0.36940   0.75320   Biso      1.000     C          -0.088551           
         C16       1.0000    0.26120   0.31920   0.68220   Biso      1.000     C          -0.091123           
         C17       1.0000    0.19810   0.25350   0.68090   Biso      1.000     C          -0.118303           
         C18       1.0000    0.18400   0.24110   0.75340   Biso      1.000     C          0.005033  
         C19       1.0000    0.22920   0.29350   0.82390   Biso      1.000     C          -0.20774  
         C20       1.0000    0.29150   0.35710   0.82350   Biso      1.000     C          0.155887  
         C21       1.0000    0.33140   0.50330   0.89790   Biso      1.000     C          -0.080439           
         C22       1.0000    0.36990   0.52820   0.97870   Biso      1.000     C          -0.045632           
         C23       1.0000    0.37460   0.38470   0.97700   Biso      1.000     C          0.111617  
         C24       1.0000    0.61540   0.67020   0.75420   Biso      1.000     C          0.594109  
         C25       1.0000    0.88360   0.93300   0.75070   Biso      1.000     C          0.611389  
         C26       1.0000    0.81120   0.86940   0.75320   Biso      1.000     C          -0.088551           
         C27       1.0000    0.76120   0.81920   0.68220   Biso      1.000     C          -0.091123           
         C28       1.0000    0.69810   0.75350   0.68090   Biso      1.000     C          -0.118303           
         C29       1.0000    0.37460   0.61530   0.47700   Biso      1.000     C          0.111617  
         C30       1.0000    0.68400   0.74110   0.75340   Biso      1.000     C          0.005033  
         C31       1.0000    0.36990   0.47180   0.47870   Biso      1.000     C          -0.045671           
         C32       1.0000    0.29150   0.64290   0.32350   Biso      1.000     C          0.155878  
         C33       1.0000    0.68880   0.63060   0.24680   Biso      1.000     C          -0.088551           
         C34       1.0000    0.73880   0.68080   0.31780   Biso      1.000     C          -0.091123           
         C35       1.0000    0.80190   0.74650   0.31910   Biso      1.000     C          -0.118303           
         C36       1.0000    0.81600   0.75890   0.24660   Biso      1.000     C          0.005033  
         C37       1.0000    0.77080   0.70650   0.17610   Biso      1.000     C          -0.20774  
         C38       1.0000    0.70850   0.64290   0.17650   Biso      1.000     C          0.155887  
         C39       1.0000    0.66860   0.49670   0.10210   Biso      1.000     C          -0.080439           
         C40       1.0000    0.63010   0.47180   0.02130   Biso      1.000     C          -0.045631           
         C41       1.0000    0.62540   0.61530   0.02300   Biso      1.000     C          0.111617  
         C42       1.0000    0.38460   0.32980   0.24580   Biso      1.000     C          0.594109  
         C43       1.0000    0.11640   0.06700   0.24930   Biso      1.000     C          0.611389  
         C44       1.0000    0.18880   0.13060   0.24680   Biso      1.000     C          -0.088551           
         C45       1.0000    0.23880   0.18080   0.31780   Biso      1.000     C          -0.091123           
         C46       1.0000    0.30190   0.24650   0.31910   Biso      1.000     C          -0.118303           
         C47       1.0000    0.31600   0.25890   0.24660   Biso      1.000     C          0.005033  
         C48       1.0000    0.27080   0.20650   0.17610   Biso      1.000     C          -0.20774  
         C49       1.0000    0.20850   0.14290   0.17650   Biso      1.000     C          0.155887  
         C50       1.0000    0.16860   0.99670   0.10210   Biso      1.000     C          -0.080439           
         C51       1.0000    0.13010   0.97180   0.02130   Biso      1.000     C          -0.045631           
         C52       1.0000    0.12540   0.11530   0.02300   Biso      1.000     C          0.111617  
         C53       1.0000    0.11540   0.82980   0.25420   Biso      1.000     C          0.594109  
         C54       1.0000    0.38360   0.56700   0.25070   Biso      1.000     C          0.611389  
         C55       1.0000    0.31120   0.63060   0.25320   Biso      1.000     C          -0.088551           
         C56       1.0000    0.26120   0.68080   0.18220   Biso      1.000     C          -0.091123           
         C57       1.0000    0.19810   0.74650   0.18090   Biso      1.000     C          -0.118303           
         C58       1.0000    0.18400   0.75890   0.25340   Biso      1.000     C          0.005032  
         C59       1.0000    0.22920   0.70650   0.32390   Biso      1.000     C          -0.207731           
         C60       1.0000    0.33140   0.49670   0.39790   Biso      1.000     C          -0.080399           
         C61       1.0000    0.72920   0.79350   0.82390   Biso      1.000     C          -0.20774  
         C62       1.0000    0.88460   0.82980   0.24580   Biso      1.000     C          0.594109  
         C63       1.0000    0.27080   0.79350   0.67610   Biso      1.000     C          -0.207745           
         C64       1.0000    0.61640   0.43300   0.74930   Biso      1.000     C          0.611389  
         C65       1.0000    0.68880   0.36940   0.74680   Biso      1.000     C          -0.088551           
         C66       1.0000    0.73880   0.31920   0.81780   Biso      1.000     C          -0.091123           
         C67       1.0000    0.16860   0.00330   0.60210   Biso      1.000     C          -0.080439           
         C68       1.0000    0.20850   0.85710   0.67650   Biso      1.000     C          0.155887  
         C69       1.0000    0.80190   0.25350   0.81910   Biso      1.000     C          -0.118303           
         C70       1.0000    0.81600   0.24110   0.74660   Biso      1.000     C          0.005033  
         C71       1.0000    0.77080   0.29350   0.67610   Biso      1.000     C          -0.20774  
         C72       1.0000    0.88460   0.17020   0.74580   Biso      1.000     C          0.594109  
         C73       1.0000    0.70850   0.35710   0.67650   Biso      1.000     C          0.155886  
         C74       1.0000    0.63010   0.52820   0.52130   Biso      1.000     C          -0.045671           
         C75       1.0000    0.31600   0.74110   0.74660   Biso      1.000     C          0.005035  
         C76       1.0000    0.30190   0.75350   0.81910   Biso      1.000     C          -0.118302           
         C77       1.0000    0.79150   0.85710   0.82350   Biso      1.000     C          0.155886  
         C78       1.0000    0.62540   0.38470   0.52300   Biso      1.000     C          0.111617  
         C79       1.0000    0.23880   0.81920   0.81780   Biso      1.000     C          -0.091128           
         C80       1.0000    0.18880   0.86940   0.74680   Biso      1.000     C          -0.088545           
         C81       1.0000    0.11640   0.93300   0.74930   Biso      1.000     C          0.611388  
         C82       1.0000    0.66860   0.50330   0.60210   Biso      1.000     C          -0.080399           
         C83       1.0000    0.13010   0.02820   0.52130   Biso      1.000     C          -0.045631           
         C84       1.0000    0.38460   0.67020   0.74580   Biso      1.000     C          0.594109  
         C85       1.0000    0.86990   0.02820   0.97870   Biso      1.000     C          -0.045671           
         C86       1.0000    0.83140   0.00330   0.89790   Biso      1.000     C          -0.080399           
         C87       1.0000    0.87460   0.88470   0.97700   Biso      1.000     C          0.111617  
         C88       1.0000    0.12540   0.88470   0.52300   Biso      1.000     C          0.111617  
         H1        1.0000    0.66630   0.28110   0.13250   Biso      1.000     H          0.124066  
         H2        1.0000    0.73020   0.67060   0.36690   Biso      1.000     H          0.120228  
         H3        1.0000    0.76980   0.17060   0.13310   Biso      1.000     H          0.120228  
         H4        1.0000    0.62380   0.58670   0.50150   Biso      1.000     H          0.126176  
         H5        1.0000    0.61490   0.32520   0.50640   Biso      1.000     H          0.11239   
         H6        1.0000    0.28240   0.21410   0.12820   Biso      1.000     H          0.13701   
         H7        1.0000    0.88510   0.82520   0.99360   Biso      1.000     H          0.11239   
         H8        1.0000    0.76980   0.82940   0.63310   Biso      1.000     H          0.120228  
         H9        1.0000    0.19200   0.95900   0.14920   Biso      1.000     H          0.131345  
         H10       1.0000    0.33370   0.71890   0.86750   Biso      1.000     H          0.124066  
         H11       1.0000    0.30800   0.54100   0.85080   Biso      1.000     H          0.131345  
         H12       1.0000    0.69200   0.54100   0.64920   Biso      1.000     H          0.131342  
         H13       1.0000    0.66630   0.71890   0.63250   Biso      1.000     H          0.124066  
         H14       1.0000    0.38510   0.67480   0.49360   Biso      1.000     H          0.11239   
         H15       1.0000    0.87620   0.08670   0.99850   Biso      1.000     H          0.126176  
         H16       1.0000    0.37620   0.41330   0.49850   Biso      1.000     H          0.126176  
         H17       1.0000    0.11490   0.17480   0.00640   Biso      1.000     H          0.11239   
         H18       1.0000    0.30800   0.45900   0.35080   Biso      1.000     H          0.131342  
         H19       1.0000    0.23020   0.82940   0.86690   Biso      1.000     H          0.120228  
         H20       1.0000    0.21760   0.71410   0.37180   Biso      1.000     H          0.137009  
         H21       1.0000    0.16630   0.78110   0.13250   Biso      1.000     H          0.124066  
         H22       1.0000    0.71760   0.78590   0.87180   Biso      1.000     H          0.13701   
         H23       1.0000    0.12380   0.91330   0.00150   Biso      1.000     H          0.126173  
         H24       1.0000    0.37620   0.58670   0.99850   Biso      1.000     H          0.126173  
         H25       1.0000    0.83370   0.78110   0.36750   Biso      1.000     H          0.124066  
         H26       1.0000    0.78240   0.71410   0.12820   Biso      1.000     H          0.13701   
         H27       1.0000    0.21760   0.28590   0.87180   Biso      1.000     H          0.13701   
         H28       1.0000    0.12380   0.08670   0.50150   Biso      1.000     H          0.126173  
         H29       1.0000    0.61490   0.67480   0.00640   Biso      1.000     H          0.11239   
         H30       1.0000    0.16630   0.21890   0.63250   Biso      1.000     H          0.124066  
         H31       1.0000    0.38510   0.32520   0.99360   Biso      1.000     H          0.11239   
         H32       1.0000    0.26980   0.32940   0.63310   Biso      1.000     H          0.120228  
         H33       1.0000    0.11490   0.82520   0.50640   Biso      1.000     H          0.11239   
         H34       1.0000    0.73020   0.32940   0.86690   Biso      1.000     H          0.120228  
         H35       1.0000    0.71760   0.21410   0.37180   Biso      1.000     H          0.13701   
         H36       1.0000    0.19200   0.04100   0.64920   Biso      1.000     H          0.131345  
         H37       1.0000    0.23020   0.17060   0.36690   Biso      1.000     H          0.120228  
         H38       1.0000    0.62380   0.41330   0.00150   Biso      1.000     H          0.126173  
         H39       1.0000    0.33370   0.28110   0.36750   Biso      1.000     H          0.124065  
         H40       1.0000    0.26980   0.67060   0.13310   Biso      1.000     H          0.120228  
         H41       1.0000    0.28240   0.78590   0.62820   Biso      1.000     H          0.13701   
         H42       1.0000    0.83370   0.21890   0.86750   Biso      1.000     H          0.124065  
         H43       1.0000    0.88510   0.17480   0.49360   Biso      1.000     H          0.11239   
         H44       1.0000    0.87620   0.91330   0.49850   Biso      1.000     H          0.126173  
         H45       1.0000    0.80800   0.95900   0.35080   Biso      1.000     H          0.131345  
         H46       1.0000    0.78240   0.28590   0.62820   Biso      1.000     H          0.13701   
         H47       1.0000    0.69200   0.45900   0.14920   Biso      1.000     H          0.131345  
         H48       1.0000    0.80800   0.04100   0.85080   Biso      1.000     H          0.131342  
         N1        1.0000    0.16790   0.91270   0.60390   Biso      1.000     N          0.020748  
         N2        1.0000    0.10080   0.95190   0.47100   Biso      1.000     N          -0.255594           
         N3        1.0000    0.16790   0.08730   0.10390   Biso      1.000     N          0.020748  
         N4        1.0000    0.10080   0.04810   0.97100   Biso      1.000     N          -0.255594           
         N5        1.0000    0.60080   0.54810   0.97100   Biso      1.000     N          -0.255594           
         N6        1.0000    0.66790   0.58730   0.10390   Biso      1.000     N          0.020748  
         N7        1.0000    0.33210   0.58730   0.39610   Biso      1.000     N          0.020746  
         N8        1.0000    0.39920   0.54810   0.52900   Biso      1.000     N          -0.25559  
         N9        1.0000    0.89920   0.04810   0.52900   Biso      1.000     N          -0.255594           
         N10       1.0000    0.39920   0.45190   0.02900   Biso      1.000     N          -0.255594           
         N11       1.0000    0.33210   0.41270   0.89610   Biso      1.000     N          0.020748  
         N12       1.0000    0.89920   0.95190   0.02900   Biso      1.000     N          -0.25559  
         N13       1.0000    0.83210   0.08730   0.39610   Biso      1.000     N          0.020748  
         N14       1.0000    0.83210   0.91270   0.89610   Biso      1.000     N          0.020745  
         N15       1.0000    0.60080   0.45190   0.47100   Biso      1.000     N          -0.25559  
         N16       1.0000    0.66790   0.41270   0.60390   Biso      1.000     N          0.020745  
         O1        1.0000    0.54330   0.55800   0.18140   Biso      1.000     O          -0.568356           
         O2        1.0000    0.63450   0.52870   0.31740   Biso      1.000     O          -0.54272  
         O3        1.0000    0.92970   0.87060   0.31420   Biso      1.000     O          -0.566216           
         O4        1.0000    0.88930   0.84270   0.17710   Biso      1.000     O          -0.544027           
         O5        1.0000    0.54330   0.44200   0.68140   Biso      1.000     O          -0.568356           
         O6        1.0000    0.86550   0.97130   0.68260   Biso      1.000     O          -0.54272  
         O7        1.0000    0.42970   0.62940   0.81420   Biso      1.000     O          -0.566216           
         O8        1.0000    0.57030   0.62940   0.68580   Biso      1.000     O          -0.566216           
         O9        1.0000    0.61070   0.65730   0.82290   Biso      1.000     O          -0.544027           
         O10       1.0000    0.11070   0.15730   0.82290   Biso      1.000     O          -0.544027           
         O11       1.0000    0.07030   0.12940   0.68580   Biso      1.000     O          -0.566216           
         O12       1.0000    0.36550   0.47130   0.68260   Biso      1.000     O          -0.54272  
         O13       1.0000    0.95670   0.94200   0.81860   Biso      1.000     O          -0.568356           
         O14       1.0000    0.13450   0.97130   0.81740   Biso      1.000     O          -0.54272  
         O15       1.0000    0.57030   0.37060   0.18580   Biso      1.000     O          -0.566216           
         O16       1.0000    0.88930   0.15730   0.67710   Biso      1.000     O          -0.544026           
         O17       1.0000    0.04330   0.94200   0.68140   Biso      1.000     O          -0.568356           
         O18       1.0000    0.04330   0.05800   0.18140   Biso      1.000     O          -0.568355           
         O19       1.0000    0.13450   0.02870   0.31740   Biso      1.000     O          -0.54272  
         O20       1.0000    0.42970   0.37060   0.31420   Biso      1.000     O          -0.566217           
         O21       1.0000    0.38930   0.34270   0.17710   Biso      1.000     O          -0.544026           
         O22       1.0000    0.63450   0.47130   0.81740   Biso      1.000     O          -0.54272  
         O23       1.0000    0.92970   0.12940   0.81420   Biso      1.000     O          -0.566217           
         O24       1.0000    0.38930   0.65730   0.67710   Biso      1.000     O          -0.544026           
         O25       1.0000    0.11070   0.84270   0.32290   Biso      1.000     O          -0.544027           
         O26       1.0000    0.07030   0.87060   0.18580   Biso      1.000     O          -0.566216           
         O27       1.0000    0.36550   0.52870   0.18260   Biso      1.000     O          -0.54272  
         O28       1.0000    0.45670   0.55800   0.31860   Biso      1.000     O          -0.568356           
         O29       1.0000    0.61070   0.34270   0.32290   Biso      1.000     O          -0.544027           
         O30       1.0000    0.45670   0.44200   0.81860   Biso      1.000     O          -0.568356           
         O31       1.0000    0.86550   0.02870   0.18260   Biso      1.000     O          -0.54272  
         O32       1.0000    0.95670   0.05800   0.31860   Biso      1.000     O          -0.568356           
         Zn1       1.0000    0.45560   0.44929   0.15484   Biso      1.000     Zn          0.858707  
         Zn2       1.0000    0.95560   0.94929   0.15484   Biso      1.000     Zn          0.858707  
         Zn3       1.0000    0.54440   0.44929   0.34516   Biso      1.000     Zn          0.858708  
         Zn4       1.0000    0.95560   0.05071   0.65484   Biso      1.000     Zn          0.858707  
         Zn5       1.0000    0.45560   0.55071   0.65484   Biso      1.000     Zn          0.858706  
         Zn6       1.0000    0.04440   0.05071   0.84516   Biso      1.000     Zn          0.858708  
         Zn7       1.0000    0.54440   0.55071   0.84516   Biso      1.000     Zn          0.858708  
         Zn8       1.0000    0.04440   0.94929   0.34516   Biso      1.000     Zn          0.858708 