
##########################################################################
#               Crystallographic Information Format file
#               Produced by PyCifRW module
#
#  This is a CIF file.  CIF has been adopted by the International
#  Union of Crystallography as the standard for data archiving and
#  transmission.
#
#  For information on this file format, follow the CIF links at
#  http://www.iucr.org
##########################################################################

data_image0

_cell_length_a                          8.755
_cell_length_b                          11.2739
_cell_length_c                          17.7519
_cell_angle_alpha                       84.5057
_cell_angle_beta                        75.7242
_cell_angle_gamma                       67.1522
_symmetry_space_group_name_H-M          'P 1'
_symmetry_int_tables_number             1
loop_
  _symmetry_equiv_pos_as_xyz
         'x, y, z' 
loop_
  _atom_site_label
  _atom_site_occupancy
  _atom_site_fract_x
  _atom_site_fract_y
  _atom_site_fract_z
  _atom_site_thermal_displace_type
  _atom_site_B_iso_or_equiv
  _atom_site_type_symbol
  _atom_site_charge
         C1        1.0000    0.51653   0.93256   0.93492   Biso      1.000     C          -0.031699           
         C2        1.0000    0.90453   0.53914   0.94424   Biso      1.000     C          -0.101624           
         C3        1.0000    0.14427   0.52836   0.99072   Biso      1.000     C          -0.099437           
         C4        1.0000    0.04855   0.56744   0.93492   Biso      1.000     C          -0.031449           
         C5        1.0000    0.10029   0.63942   0.86476   Biso      1.000     C          0.671964  
         C6        1.0000    0.04462   0.18288   0.75086   Biso      1.000     C          -0.102129           
         C7        1.0000    0.65123   0.96086   0.94424   Biso      1.000     C          -0.102684           
         C8        1.0000    0.36501   0.97164   0.99072   Biso      1.000     C          -0.09925199999999999          
         C9        1.0000    0.53495   0.86058   0.86476   Biso      1.000     C          0.6703600000000001  
         C10       1.0000    0.02164   0.68288   0.25086   Biso      1.000     C          -0.103404           
         C11       1.0000    0.44367   0.46086   0.44424   Biso      1.000     C          -0.10326099999999999          
         C12       1.0000    0.67263   0.47164   0.49072   Biso      1.000     C          -0.101266           
         C13       1.0000    0.61599   0.43256   0.43492   Biso      1.000     C          -0.029564           
         C14       1.0000    0.73971   0.36058   0.36476   Biso      1.000     C          0.669215  
         C15       1.0000    0.61209   0.03914   0.44424   Biso      1.000     C          -0.102039           
         C16       1.0000    0.33665   0.02836   0.49072   Biso      1.000     C          -0.101608           
         C17       1.0000    0.70452   0.31712   0.75086   Biso      1.000     C          -0.102825           
         C18       1.0000    0.44909   0.06744   0.43492   Biso      1.000     C          -0.030913           
         C19       1.0000    0.60447   0.86058   0.63524   Biso      1.000     C          0.668992  
         C20       1.0000    0.66335   0.97164   0.50928   Biso      1.000     C          -0.101609           
         C21       1.0000    0.80826   0.38348   0.75000   Biso      1.000     C          -0.027417           
         C22       1.0000    0.73638   0.52724   0.75000   Biso      1.000     C          0.670087  
         C23       1.0000    0.94174   0.11652   0.75000   Biso      1.000     C          -0.027656           
         C24       1.0000    0.01362   0.97276   0.75000   Biso      1.000     C          0.670172  
         C25       1.0000    0.19174   0.61652   0.25000   Biso      1.000     C          -0.027416000000000003         
         C26       1.0000    0.26362   0.47276   0.25000   Biso      1.000     C          0.670087  
         C27       1.0000    0.05826   0.88348   0.25000   Biso      1.000     C          -0.027658999999999996         
         C28       1.0000    0.98638   0.02724   0.25000   Biso      1.000     C          0.670172  
         C29       1.0000    0.97836   0.31712   0.74914   Biso      1.000     C          -0.1034   
         C30       1.0000    0.55633   0.53914   0.55576   Biso      1.000     C          -0.10326199999999999          
         C31       1.0000    0.32737   0.52836   0.50928   Biso      1.000     C          -0.101266           
         C32       1.0000    0.38401   0.56744   0.56508   Biso      1.000     C          -0.029564           
         C33       1.0000    0.26029   0.63942   0.63524   Biso      1.000     C          0.669215  
         C34       1.0000    0.77250   0.18288   0.74914   Biso      1.000     C          -0.103105           
         C35       1.0000    0.38791   0.96086   0.55576   Biso      1.000     C          -0.10203999999999999          
         C36       1.0000    0.55091   0.93256   0.56508   Biso      1.000     C          -0.030913           
         C37       1.0000    0.39553   0.13942   0.36476   Biso      1.000     C          0.668992  
         C38       1.0000    0.22750   0.81712   0.25086   Biso      1.000     C          -0.10310699999999999          
         C39       1.0000    0.09547   0.46086   0.05576   Biso      1.000     C          -0.101624           
         C40       1.0000    0.85573   0.47164   0.00928   Biso      1.000     C          -0.099437           
         C41       1.0000    0.95145   0.43256   0.06508   Biso      1.000     C          -0.031449           
         C42       1.0000    0.89971   0.36058   0.13524   Biso      1.000     C          0.671964  
         C43       1.0000    0.95538   0.81712   0.24914   Biso      1.000     C          -0.102124           
         C44       1.0000    0.34877   0.03914   0.05576   Biso      1.000     C          -0.10268499999999998          
         C45       1.0000    0.63499   0.02836   0.00928   Biso      1.000     C          -0.099255           
         C46       1.0000    0.48347   0.06744   0.06508   Biso      1.000     C          -0.031697           
         C47       1.0000    0.46505   0.13942   0.13524   Biso      1.000     C          0.670359  
         C48       1.0000    0.29548   0.68288   0.24914   Biso      1.000     C          -0.10282100000000001          
         H1        1.0000    0.40550   0.43460   0.40680   Biso      1.000     H          0.120117  
         H2        1.0000    0.78820   0.45280   0.48480   Biso      1.000     H          0.126972  
         H3        1.0000    0.29620   0.86180   0.25260   Biso      1.000     H          0.12469000000000001           
         H4        1.0000    0.68770   0.06540   0.40680   Biso      1.000     H          0.12003499999999999           
         H5        1.0000    0.22700   0.04720   0.48480   Biso      1.000     H          0.12723399999999999           
         H6        1.0000    0.24690   0.06540   0.09320   Biso      1.000     H          0.12003299999999999           
         H7        1.0000    0.15990   0.43460   0.09320   Biso      1.000     H          0.11910499999999999           
         H8        1.0000    0.75900   0.45280   0.01520   Biso      1.000     H          0.125842  
         H9        1.0000    0.84200   0.86180   0.24740   Biso      1.000     H          0.12383   
         H10       1.0000    0.72580   0.04720   0.01520   Biso      1.000     H          0.126167  
         H11       1.0000    0.41060   0.63820   0.24740   Biso      1.000     H          0.124393  
         H12       1.0000    0.27420   0.95280   0.98480   Biso      1.000     H          0.126167  
         H13       1.0000    0.95120   0.63820   0.25260   Biso      1.000     H          0.12430699999999999           
         H14       1.0000    0.15800   0.13820   0.75260   Biso      1.000     H          0.12383   
         H15       1.0000    0.24100   0.54720   0.98480   Biso      1.000     H          0.125842  
         H16       1.0000    0.84010   0.56540   0.90680   Biso      1.000     H          0.11910499999999999           
         H17       1.0000    0.58940   0.36180   0.75260   Biso      1.000     H          0.124393  
         H18       1.0000    0.77300   0.95280   0.51520   Biso      1.000     H          0.12723399999999999           
         H19       1.0000    0.31230   0.93460   0.59320   Biso      1.000     H          0.12003499999999999           
         H20       1.0000    0.70380   0.13820   0.74740   Biso      1.000     H          0.12469000000000001           
         H21       1.0000    0.21180   0.54720   0.51520   Biso      1.000     H          0.126972  
         H22       1.0000    0.59450   0.56540   0.59320   Biso      1.000     H          0.120117  
         H23       1.0000    0.04880   0.36180   0.74740   Biso      1.000     H          0.124306  
         H24       1.0000    0.75310   0.93460   0.90680   Biso      1.000     H          0.12003299999999999           
         O1        1.0000    0.16149   0.41672   0.27058   Biso      1.000     O          -0.6528430000000001           
         O2        1.0000    0.41238   0.83328   0.85908   Biso      1.000     O          -0.626207           
         O3        1.0000    0.67213   0.83156   0.81486   Biso      1.000     O          -0.672396           
         O4        1.0000    0.15121   0.91672   0.77058   Biso      1.000     O          -0.6519   
         O5        1.0000    0.22854   0.66672   0.85908   Biso      1.000     O          -0.6272260000000001           
         O6        1.0000    0.68145   0.33156   0.31486   Biso      1.000     O          -0.671621           
         O7        1.0000    0.57821   0.58328   0.77058   Biso      1.000     O          -0.652249           
         O8        1.0000    0.10474   0.66672   0.64092   Biso      1.000     O          -0.626372           
         O9        1.0000    0.93207   0.91672   0.72942   Biso      1.000     O          -0.653558           
         O10       1.0000    0.49631   0.83156   0.68514   Biso      1.000     O          -0.67119  
         O11       1.0000    0.75434   0.83328   0.64092   Biso      1.000     O          -0.626488           
         O12       1.0000    0.01301   0.66844   0.81486   Biso      1.000     O          -0.67324  
         O13       1.0000    0.89526   0.33328   0.35908   Biso      1.000     O          -0.626372           
         O14       1.0000    0.83851   0.58328   0.72942   Biso      1.000     O          -0.6528430000000001           
         O15       1.0000    0.50369   0.16844   0.31486   Biso      1.000     O          -0.67119  
         O16       1.0000    0.24566   0.16672   0.35908   Biso      1.000     O          -0.626488           
         O17       1.0000    0.42179   0.41672   0.22942   Biso      1.000     O          -0.652249           
         O18       1.0000    0.98699   0.33156   0.18514   Biso      1.000     O          -0.67324  
         O19       1.0000    0.77146   0.33328   0.14092   Biso      1.000     O          -0.6272260000000001           
         O20       1.0000    0.84879   0.08328   0.22942   Biso      1.000     O          -0.6519   
         O21       1.0000    0.32787   0.16844   0.18514   Biso      1.000     O          -0.672396           
         O22       1.0000    0.58762   0.16672   0.14092   Biso      1.000     O          -0.626207           
         O23       1.0000    0.31855   0.66844   0.68514   Biso      1.000     O          -0.671621           
         O24       1.0000    0.06793   0.08328   0.27058   Biso      1.000     O          -0.6535569999999999           
         Sc1       1.0000    0.88567   0.75000   0.72866   Biso      1.000     Sc          1.8522450000000001  
         Sc2       1.0000    0.36433   0.75000   0.77134   Biso      1.000     Sc          1.8508630000000001  
         Sc3       1.0000    0.11433   0.25000   0.27134   Biso      1.000     Sc          1.8522450000000001  
         Sc4       1.0000    0.63567   0.25000   0.22866   Biso      1.000     Sc          1.850862 