
##########################################################################
#               Crystallographic Information Format file
#               Produced by PyCifRW module
#
#  This is a CIF file.  CIF has been adopted by the International
#  Union of Crystallography as the standard for data archiving and
#  transmission.
#
#  For information on this file format, follow the CIF links at
#  http://www.iucr.org
##########################################################################

data_image0

_cell_length_a                          8.136
_cell_length_b                          21.3945
_cell_length_c                          22.8798
_cell_angle_alpha                       82.374
_cell_angle_beta                        82.746
_cell_angle_gamma                       79.437
_symmetry_space_group_name_H-M          'P 1'
_symmetry_int_tables_number             1
loop_
  _symmetry_equiv_pos_as_xyz
         'x, y, z' 
loop_
  _atom_site_label
  _atom_site_occupancy
  _atom_site_fract_x
  _atom_site_fract_y
  _atom_site_fract_z
  _atom_site_thermal_displace_type
  _atom_site_B_iso_or_equiv
  _atom_site_type_symbol
  _atom_site_charge
         C1        1.0000    0.21780   0.95380   0.57550   Biso      1.000     C          0.623037  
         C2        1.0000    0.48730   0.30250   0.07030   Biso      1.000     C          -0.080249           
         C3        1.0000    0.58390   0.24750   0.05100   Biso      1.000     C          -0.144948           
         C4        1.0000    0.28320   0.37850   0.93080   Biso      1.000     C          0.708654  
         C5        1.0000    0.32010   0.41240   0.04990   Biso      1.000     C          0.583998  
         C6        1.0000    0.85730   0.15210   0.99830   Biso      1.000     C          0.69329   
         C7        1.0000    0.60040   0.12770   0.96280   Biso      1.000     C          0.697045  
         C8        1.0000    0.39630   0.34750   0.03200   Biso      1.000     C          -0.011441           
         C9        1.0000    0.44090   0.77050   0.53760   Biso      1.000     C          0.624795  
         C10       1.0000    0.13880   0.76710   0.58170   Biso      1.000     C          -0.039538           
         C11       1.0000    0.01890   0.76630   0.63060   Biso      1.000     C          -0.147841           
         C12       1.0000    0.06680   0.76000   0.68760   Biso      1.000     C          0.085979  
         C13       1.0000    0.23560   0.75190   0.69470   Biso      1.000     C          -0.135026           
         C14       1.0000    0.35540   0.75180   0.64590   Biso      1.000     C          -0.106773           
         C15       1.0000    0.08260   0.77270   0.52050   Biso      1.000     C          0.655953  
         C16       1.0000    0.30770   0.76220   0.58850   Biso      1.000     C          -0.017234           
         C17       1.0000    0.39090   0.33410   0.97440   Biso      1.000     C          -0.02495  
         C18       1.0000    0.48830   0.27940   0.95530   Biso      1.000     C          -0.164131           
         C19       1.0000    0.59050   0.23640   0.99170   Biso      1.000     C          0.104862  
         C20       1.0000    0.67310   0.78910   0.20760   Biso      1.000     C          -0.088666           
         C21       1.0000    0.70390   0.85050   0.18590   Biso      1.000     C          -0.126133           
         C22       1.0000    0.35570   0.82610   0.34040   Biso      1.000     C          0.726601  
         C23       1.0000    0.57140   0.70980   0.28820   Biso      1.000     C          0.643232  
         C24       1.0000    0.81850   0.97640   0.15330   Biso      1.000     C          0.687013  
         C25       1.0000    0.50830   0.01230   0.17480   Biso      1.000     C          0.693711  
         C26       1.0000    0.92740   0.30100   0.72880   Biso      1.000     C          0.647317  
         C27       1.0000    0.89290   0.26430   0.78950   Biso      1.000     C          -0.032922           
         C28       1.0000    0.89480   0.29320   0.84190   Biso      1.000     C          -0.03113  
         C29       1.0000    0.83950   0.26360   0.89570   Biso      1.000     C          -0.167356           
         C30       1.0000    0.77760   0.20610   0.90100   Biso      1.000     C          0.094317  
         C31       1.0000    0.78010   0.17720   0.84920   Biso      1.000     C          -0.138691           
         C32       1.0000    0.83580   0.20590   0.79590   Biso      1.000     C          -0.082979           
         C33       1.0000    0.96480   0.35380   0.84030   Biso      1.000     C          0.712195  
         C34       1.0000    0.70390   0.18010   0.96400   Biso      1.000     C          -0.307416           
         C35       1.0000    0.93470   0.76830   0.74290   Biso      1.000     C          -0.312414           
         C36       1.0000    0.57030   0.77840   0.25950   Biso      1.000     C          -0.014245           
         C37       1.0000    0.99410   0.72400   0.79740   Biso      1.000     C          0.1059    
         C38       1.0000    0.09410   0.61450   0.83820   Biso      1.000     C          -0.000239           
         C39       1.0000    0.42970   0.22160   0.74050   Biso      1.000     C          -0.014246           
         C40       1.0000    0.32690   0.21090   0.79240   Biso      1.000     C          -0.088665           
         C41       1.0000    0.29610   0.14950   0.81410   Biso      1.000     C          -0.126133           
         C42       1.0000    0.64430   0.17390   0.65960   Biso      1.000     C          0.726601  
         C43       1.0000    0.42860   0.29020   0.71180   Biso      1.000     C          0.643232  
         C44       1.0000    0.18150   0.02360   0.84670   Biso      1.000     C          0.687013  
         C45       1.0000    0.51370   0.16890   0.71160   Biso      1.000     C          -0.049591           
         C46       1.0000    0.49170   0.98770   0.82520   Biso      1.000     C          0.693711  
         C47       1.0000    0.10710   0.73570   0.21050   Biso      1.000     C          -0.032922           
         C48       1.0000    0.10520   0.70680   0.15810   Biso      1.000     C          -0.03113  
         C49       1.0000    0.16050   0.73640   0.10430   Biso      1.000     C          -0.167356           
         C50       1.0000    0.22240   0.79390   0.09900   Biso      1.000     C          0.094317  
         C51       1.0000    0.21990   0.82280   0.15080   Biso      1.000     C          -0.138691           
         C52       1.0000    0.16420   0.79410   0.20410   Biso      1.000     C          -0.082979           
         C53       1.0000    0.07260   0.69900   0.27120   Biso      1.000     C          0.647317  
         C54       1.0000    0.48160   0.10880   0.73340   Biso      1.000     C          -0.162517           
         C55       1.0000    0.37290   0.09760   0.78340   Biso      1.000     C          0.096448  
         C56       1.0000    0.33460   0.02870   0.79960   Biso      1.000     C          -0.30647  
         C57       1.0000    0.08480   0.63500   0.89520   Biso      1.000     C          -0.033945           
         C58       1.0000    0.03070   0.69960   0.90040   Biso      1.000     C          -0.068765           
         C59       1.0000    0.98450   0.74360   0.85330   Biso      1.000     C          -0.143506           
         C60       1.0000    0.15580   0.54650   0.82610   Biso      1.000     C          0.673433  
         C61       1.0000    0.11760   0.59220   0.94950   Biso      1.000     C          0.635148  
         C62       1.0000    0.75920   0.75560   0.73440   Biso      1.000     C          0.701097  
         C63       1.0000    0.92100   0.84020   0.75420   Biso      1.000     C          0.685258  
         C64       1.0000    0.40950   0.76360   0.00830   Biso      1.000     C          0.104857  
         C65       1.0000    0.22110   0.97180   0.63610   Biso      1.000     C          0.005316  
         C66       1.0000    0.15910   0.03270   0.65260   Biso      1.000     C          -0.067174           
         C67       1.0000    0.19740   0.04870   0.70590   Biso      1.000     C          -0.150463           
         C68       1.0000    0.29200   0.00530   0.74350   Biso      1.000     C          0.097136  
         C69       1.0000    0.34930   0.94320   0.72850   Biso      1.000     C          -0.128846           
         C70       1.0000    0.31140   0.92730   0.67570   Biso      1.000     C          -0.097772           
         C71       1.0000    0.07010   0.08430   0.61090   Biso      1.000     C          0.697448  
         C72       1.0000    0.05040   0.65890   0.79070   Biso      1.000     C          -0.169666           
         C73       1.0000    0.48630   0.83110   0.28840   Biso      1.000     C          -0.049591           
         C74       1.0000    0.51840   0.89120   0.26660   Biso      1.000     C          -0.162516           
         C75       1.0000    0.62710   0.90240   0.21660   Biso      1.000     C          0.096448  
         C76       1.0000    0.64460   0.24820   0.35410   Biso      1.000     C          -0.106773           
         C77       1.0000    0.76440   0.24810   0.30530   Biso      1.000     C          -0.135028           
         C78       1.0000    0.93320   0.24000   0.31240   Biso      1.000     C          0.08598   
         C79       1.0000    0.98110   0.23370   0.36940   Biso      1.000     C          -0.14784  
         C80       1.0000    0.86120   0.23290   0.41830   Biso      1.000     C          -0.039538           
         C81       1.0000    0.69230   0.23780   0.41150   Biso      1.000     C          -0.017234           
         C82       1.0000    0.55910   0.22950   0.46240   Biso      1.000     C          0.624795  
         C83       1.0000    0.91740   0.22730   0.47950   Biso      1.000     C          0.655953  
         C84       1.0000    0.51170   0.72060   0.04470   Biso      1.000     C          -0.164126           
         C85       1.0000    0.60370   0.65250   0.96800   Biso      1.000     C          -0.011443           
         C86       1.0000    0.51270   0.69750   0.92970   Biso      1.000     C          -0.080248           
         C87       1.0000    0.41610   0.75250   0.94900   Biso      1.000     C          -0.144947           
         C88       1.0000    0.71680   0.62150   0.06920   Biso      1.000     C          0.708654  
         C89       1.0000    0.67990   0.58760   0.95010   Biso      1.000     C          0.583998  
         C90       1.0000    0.03520   0.64620   0.15970   Biso      1.000     C          0.712195  
         C91       1.0000    0.39960   0.87230   0.03720   Biso      1.000     C          0.697045  
         C92       1.0000    0.60910   0.66590   0.02560   Biso      1.000     C          -0.02495  
         C93       1.0000    0.06530   0.23170   0.25710   Biso      1.000     C          -0.312414           
         C94       1.0000    0.14270   0.84790   0.00170   Biso      1.000     C          0.69329   
         C95       1.0000    0.94960   0.34110   0.20930   Biso      1.000     C          -0.169666           
         C96       1.0000    0.00590   0.27600   0.20260   Biso      1.000     C          0.105901  
         C97       1.0000    0.66540   0.97130   0.20040   Biso      1.000     C          -0.30647  
         C98       1.0000    0.92990   0.91570   0.38910   Biso      1.000     C          0.697448  
         C99       1.0000    0.68860   0.07270   0.32430   Biso      1.000     C          -0.097775           
         C100      1.0000    0.65070   0.05680   0.27150   Biso      1.000     C          -0.128843           
         C101      1.0000    0.70800   0.99470   0.25650   Biso      1.000     C          0.097136  
         C102      1.0000    0.80260   0.95130   0.29410   Biso      1.000     C          -0.150463           
         C103      1.0000    0.84090   0.96730   0.34740   Biso      1.000     C          -0.067174           
         C104      1.0000    0.77890   0.02820   0.36390   Biso      1.000     C          0.005316  
         C105      1.0000    0.29610   0.81990   0.03600   Biso      1.000     C          -0.307416           
         C106      1.0000    0.07900   0.15980   0.24580   Biso      1.000     C          0.685258  
         C107      1.0000    0.24080   0.24440   0.26560   Biso      1.000     C          0.701097  
         C108      1.0000    0.88240   0.40780   0.05050   Biso      1.000     C          0.635148  
         C109      1.0000    0.84420   0.45350   0.17390   Biso      1.000     C          0.673433  
         C110      1.0000    0.01550   0.25640   0.14670   Biso      1.000     C          -0.143509           
         C111      1.0000    0.96930   0.30040   0.09960   Biso      1.000     C          -0.068762           
         C112      1.0000    0.91520   0.36500   0.10480   Biso      1.000     C          -0.033946           
         C113      1.0000    0.78220   0.04620   0.42450   Biso      1.000     C          0.623037  
         C114      1.0000    0.90590   0.38550   0.16180   Biso      1.000     C          -0.000239           
         F1        1.0000    0.77140   0.70140   0.71130   Biso      1.000     F          -0.187278           
         F2        1.0000    0.89390   0.87880   0.70340   Biso      1.000     F          -0.214454           
         F3        1.0000    0.79100   0.85730   0.79380   Biso      1.000     F          -0.210029           
         F4        1.0000    0.05910   0.85200   0.77200   Biso      1.000     F          -0.175519           
         F5        1.0000    0.04630   0.06530   0.83030   Biso      1.000     F          -0.196743           
         F6        1.0000    0.13830   0.96600   0.85140   Biso      1.000     F          -0.206034           
         F7        1.0000    0.46810   0.92920   0.84900   Biso      1.000     F          -0.198607           
         F8        1.0000    0.54100   0.01580   0.86740   Biso      1.000     F          -0.21402  
         F9        1.0000    0.66380   0.75230   0.78480   Biso      1.000     F          -0.187829           
         F10       1.0000    0.61960   0.98080   0.78340   Biso      1.000     F          -0.194236           
         F11       1.0000    0.02940   0.88840   0.03240   Biso      1.000     F          -0.217846           
         F12       1.0000    0.18300   0.87890   0.94980   Biso      1.000     F          -0.200271           
         F13       1.0000    0.06160   0.80300   0.99040   Biso      1.000     F          -0.192538           
         F14       1.0000    0.47900   0.88710   0.98370   Biso      1.000     F          -0.21218  
         F15       1.0000    0.20640   0.03440   0.90020   Biso      1.000     F          -0.18666  
         F16       1.0000    0.67960   0.80200   0.69700   Biso      1.000     F          -0.210502           
         F17       1.0000    0.93840   0.19700   0.00960   Biso      1.000     F          -0.192538           
         F18       1.0000    0.69350   0.07280   0.94610   Biso      1.000     F          -0.203877           
         F19       1.0000    0.32040   0.19800   0.30300   Biso      1.000     F          -0.210502           
         F20       1.0000    0.33620   0.24770   0.21520   Biso      1.000     F          -0.187829           
         F21       1.0000    0.22860   0.29860   0.28870   Biso      1.000     F          -0.187278           
         F22       1.0000    0.10610   0.12120   0.29660   Biso      1.000     F          -0.214455           
         F23       1.0000    0.20900   0.14270   0.20620   Biso      1.000     F          -0.210029           
         F24       1.0000    0.94090   0.14800   0.22800   Biso      1.000     F          -0.175519           
         F25       1.0000    0.48020   0.14600   0.92650   Biso      1.000     F          -0.190862           
         F26       1.0000    0.95370   0.93470   0.16970   Biso      1.000     F          -0.196743           
         F27       1.0000    0.45900   0.98420   0.13260   Biso      1.000     F          -0.21402  
         F28       1.0000    0.53190   0.07080   0.15100   Biso      1.000     F          -0.198607           
         F29       1.0000    0.38040   0.01920   0.21660   Biso      1.000     F          -0.194236           
         F30       1.0000    0.97060   0.11160   0.96760   Biso      1.000     F          -0.217846           
         F31       1.0000    0.81700   0.12110   0.05020   Biso      1.000     F          -0.200271           
         F32       1.0000    0.52100   0.11290   0.01630   Biso      1.000     F          -0.21218  
         F33       1.0000    0.86170   0.03400   0.14860   Biso      1.000     F          -0.206034           
         F34       1.0000    0.79360   0.96560   0.09980   Biso      1.000     F          -0.18666  
         F35       1.0000    0.51980   0.85400   0.07350   Biso      1.000     F          -0.190862           
         F36       1.0000    0.30650   0.92720   0.05390   Biso      1.000     F          -0.203877           
         H1        1.0000    0.77510   0.85690   0.15130   Biso      1.000     H          0.118363  
         H2        1.0000    0.84320   0.28230   0.92980   Biso      1.000     H          0.129838  
         H3        1.0000    0.74330   0.13810   0.85150   Biso      1.000     H          0.116519  
         H4        1.0000    0.48530   0.27100   0.91660   Biso      1.000     H          0.12483   
         H5        1.0000    0.48340   0.30960   0.10970   Biso      1.000     H          0.121803  
         H6        1.0000    0.64420   0.21790   0.07730   Biso      1.000     H          0.118223  
         H7        1.0000    0.90600   0.77010   0.62510   Biso      1.000     H          0.127246  
         H8        1.0000    0.26940   0.74640   0.73260   Biso      1.000     H          0.118975  
         H9        1.0000    0.46880   0.74480   0.65140   Biso      1.000     H          0.117589  
         H10       1.0000    0.05860   0.64540   0.75330   Biso      1.000     H          0.126384  
         H11       1.0000    0.02550   0.71380   0.93740   Biso      1.000     H          0.120724  
         H12       1.0000    0.94700   0.78640   0.85890   Biso      1.000     H          0.120494  
         H13       1.0000    0.15790   0.08980   0.71630   Biso      1.000     H          0.129255  
         H14       1.0000    0.41210   0.91300   0.75370   Biso      1.000     H          0.118402  
         H15       1.0000    0.34710   0.88560   0.66620   Biso      1.000     H          0.118682  
         H16       1.0000    0.72260   0.75480   0.18670   Biso      1.000     H          0.12424   
         H17       1.0000    0.46460   0.92580   0.28650   Biso      1.000     H          0.117433  
         H18       1.0000    0.35580   0.78210   0.92270   Biso      1.000     H          0.118223  
         H19       1.0000    0.58790   0.08700   0.24630   Biso      1.000     H          0.118402  
         H20       1.0000    0.51660   0.69040   0.89030   Biso      1.000     H          0.121802  
         H21       1.0000    0.51470   0.72900   0.08340   Biso      1.000     H          0.124829  
         H22       1.0000    0.16400   0.81410   0.23780   Biso      1.000     H          0.116711  
         H23       1.0000    0.65290   0.11440   0.33380   Biso      1.000     H          0.118682  
         H24       1.0000    0.15680   0.71770   0.07020   Biso      1.000     H          0.129838  
         H25       1.0000    0.22490   0.14310   0.84870   Biso      1.000     H          0.118363  
         H26       1.0000    0.27740   0.24520   0.81330   Biso      1.000     H          0.124239  
         H27       1.0000    0.53540   0.07420   0.71350   Biso      1.000     H          0.117433  
         H28       1.0000    0.25670   0.86190   0.14850   Biso      1.000     H          0.116519  
         H29       1.0000    0.73060   0.25360   0.26740   Biso      1.000     H          0.118975  
         H30       1.0000    0.09400   0.22990   0.37490   Biso      1.000     H          0.127246  
         H31       1.0000    0.84210   0.91020   0.28370   Biso      1.000     H          0.129255  
         H32       1.0000    0.05300   0.21360   0.14110   Biso      1.000     H          0.120495  
         H33       1.0000    0.83600   0.18590   0.76220   Biso      1.000     H          0.116711  
         H34       1.0000    0.94140   0.35460   0.24670   Biso      1.000     H          0.126384  
         H35       1.0000    0.53120   0.25520   0.34860   Biso      1.000     H          0.117589  
         H36       1.0000    0.97450   0.28620   0.06260   Biso      1.000     H          0.120724  
         O1        1.0000    0.42140   0.30110   0.65680   Biso      1.000     O          -0.591526           
         O2        1.0000    0.74630   0.58110   0.89800   Biso      1.000     O          -0.656376           
         O3        1.0000    0.86740   0.60390   0.05310   Biso      1.000     O          -0.63835  
         O4        1.0000    0.64090   0.60810   0.12040   Biso      1.000     O          -0.708675           
         O5        1.0000    0.12310   0.60280   0.13200   Biso      1.000     O          -0.688728           
         O6        1.0000    0.89180   0.64450   0.18580   Biso      1.000     O          -0.691432           
         O7        1.0000    0.12680   0.64040   0.27800   Biso      1.000     O          -0.600403           
         O8        1.0000    0.99920   0.73130   0.31220   Biso      1.000     O          -0.768674           
         O9        1.0000    0.42920   0.33210   0.74540   Biso      1.000     O          -0.773234           
         O10       1.0000    0.67170   0.54080   0.98930   Biso      1.000     O          -0.628642           
         O11       1.0000    0.73740   0.21400   0.65670   Biso      1.000     O          -0.663232           
         O12       1.0000    0.06620   0.14020   0.61920   Biso      1.000     O          -0.675345           
         O13       1.0000    0.57860   0.69890   0.34320   Biso      1.000     O          -0.591526           
         O14       1.0000    0.65430   0.13390   0.62300   Biso      1.000     O          -0.73124  
         O15       1.0000    0.34570   0.86610   0.37700   Biso      1.000     O          -0.73124  
         O16       1.0000    0.93380   0.85980   0.38080   Biso      1.000     O          -0.675345           
         O17       1.0000    0.99440   0.93360   0.43070   Biso      1.000     O          -0.691717           
         O18       1.0000    0.66650   0.03100   0.46300   Biso      1.000     O          -0.665939           
         O19       1.0000    0.88510   0.07950   0.43600   Biso      1.000     O          -0.653553           
         O20       1.0000    0.80820   0.39190   0.01110   Biso      1.000     O          -0.604595           
         O21       1.0000    0.93520   0.46110   0.04160   Biso      1.000     O          -0.715326           
         O22       1.0000    0.93120   0.49770   0.15760   Biso      1.000     O          -0.748792           
         O23       1.0000    0.70530   0.46560   0.20430   Biso      1.000     O          -0.671513           
         O24       1.0000    0.02250   0.26060   0.48790   Biso      1.000     O          -0.657297           
         O25       1.0000    0.85240   0.19420   0.52130   Biso      1.000     O          -0.757426           
         O26       1.0000    0.45570   0.27600   0.47660   Biso      1.000     O          -0.543243           
         O27       1.0000    0.55230   0.17240   0.48560   Biso      1.000     O          -0.729719           
         O28       1.0000    0.57080   0.66790   0.25460   Biso      1.000     O          -0.773234           
         O29       1.0000    0.00080   0.26870   0.68780   Biso      1.000     O          -0.768674           
         O30       1.0000    0.26260   0.78600   0.34330   Biso      1.000     O          -0.663232           
         O31       1.0000    0.10820   0.35550   0.81420   Biso      1.000     O          -0.691432           
         O32       1.0000    0.00560   0.06640   0.56930   Biso      1.000     O          -0.691717           
         O33       1.0000    0.33350   0.96900   0.53700   Biso      1.000     O          -0.665939           
         O34       1.0000    0.11490   0.92050   0.56400   Biso      1.000     O          -0.653553           
         O35       1.0000    0.19180   0.60810   0.98890   Biso      1.000     O          -0.604595           
         O36       1.0000    0.87320   0.35960   0.72200   Biso      1.000     O          -0.600403           
         O37       1.0000    0.06880   0.50230   0.84240   Biso      1.000     O          -0.748792           
         O38       1.0000    0.29470   0.53440   0.79570   Biso      1.000     O          -0.671513           
         O39       1.0000    0.97750   0.73940   0.51210   Biso      1.000     O          -0.657297           
         O40       1.0000    0.06480   0.53890   0.95840   Biso      1.000     O          -0.715326           
         O41       1.0000    0.54430   0.72400   0.52340   Biso      1.000     O          -0.543243           
         O42       1.0000    0.44770   0.82760   0.51440   Biso      1.000     O          -0.729719           
         O43       1.0000    0.25370   0.41890   0.10200   Biso      1.000     O          -0.656376           
         O44       1.0000    0.32830   0.45920   0.01070   Biso      1.000     O          -0.628642           
         O45       1.0000    0.13260   0.39610   0.94690   Biso      1.000     O          -0.63835  
         O46       1.0000    0.35910   0.39190   0.87960   Biso      1.000     O          -0.708675           
         O47       1.0000    0.87690   0.39720   0.86800   Biso      1.000     O          -0.688728           
         O48       1.0000    0.14760   0.80580   0.47870   Biso      1.000     O          -0.757426           
         Tb1       1.0000    0.88637   0.47170   0.93240   Biso      1.000     Tb          2.107329  
         Tb2       1.0000    0.29943   0.42410   0.78378   Biso      1.000     Tb          2.144298  
         Tb3       1.0000    0.03374   0.75221   0.40385   Biso      1.000     Tb          2.182089  
         Tb4       1.0000    0.26164   0.90569   0.46480   Biso      1.000     Tb          2.108887  
         Tb5       1.0000    0.11363   0.52830   0.06760   Biso      1.000     Tb          2.107329  
         Tb6       1.0000    0.70057   0.57590   0.21622   Biso      1.000     Tb          2.144298  
         Tb7       1.0000    0.96626   0.24779   0.59615   Biso      1.000     Tb          2.182089  
         Tb8       1.0000    0.73836   0.09431   0.53520   Biso      1.000     Tb          2.108887 