
##########################################################################
#               Crystallographic Information Format file
#               Produced by PyCifRW module
#
#  This is a CIF file.  CIF has been adopted by the International
#  Union of Crystallography as the standard for data archiving and
#  transmission.
#
#  For information on this file format, follow the CIF links at
#  http://www.iucr.org
##########################################################################

data_image0

_cell_length_a                          11.144
_cell_length_b                          15.2392
_cell_length_c                          16.695
_cell_angle_alpha                       114.419
_cell_angle_beta                        90
_cell_angle_gamma                       111.447
_symmetry_space_group_name_H-M          'P 1'
_symmetry_int_tables_number             1
loop_
  _symmetry_equiv_pos_as_xyz
         'x, y, z' 
loop_
  _atom_site_label
  _atom_site_occupancy
  _atom_site_fract_x
  _atom_site_fract_y
  _atom_site_fract_z
  _atom_site_thermal_displace_type
  _atom_site_B_iso_or_equiv
  _atom_site_type_symbol
  _atom_site_charge
         C1        1.0000    0.57010   0.97920   0.59840   Biso      1.000     C          0.23975700000000003           
         C2        1.0000    0.92100   0.55720   0.19870   Biso      1.000     C          0.14963800000000002           
         C3        1.0000    0.87590   0.63080   0.25730   Biso      1.000     C          0.15704200000000001           
         C4        1.0000    0.82680   0.62260   0.33280   Biso      1.000     C          -0.22208699999999998          
         C5        1.0000    0.87830   0.37320   0.30300   Biso      1.000     C          0.5973149999999999  
         C6        1.0000    0.87720   0.46740   0.29230   Biso      1.000     C          -0.052721000000000004         
         C7        1.0000    0.82890   0.54100   0.35000   Biso      1.000     C          -0.047097           
         C8        1.0000    0.76640   0.52940   0.42830   Biso      1.000     C          0.5804199999999999  
         C9        1.0000    0.73660   0.31620   0.61760   Biso      1.000     C          -0.167976           
         C10       1.0000    0.81230   0.39320   0.59450   Biso      1.000     C          0.09684   
         C11       1.0000    0.88750   0.28040   0.49050   Biso      1.000     C          0.08524   
         C12       1.0000    0.81460   0.19860   0.51010   Biso      1.000     C          -0.174484           
         C13       1.0000    0.73780   0.21680   0.57590   Biso      1.000     C          0.066717  
         C14       1.0000    0.65630   0.12700   0.59510   Biso      1.000     C          0.272712  
         C15       1.0000    0.58630   0.71520   0.49510   Biso      1.000     C          0.06373   
         C16       1.0000    0.60980   0.81860   0.51610   Biso      1.000     C          -0.18221600000000002          
         C17       1.0000    0.54540   0.86920   0.57710   Biso      1.000     C          0.089698  
         C18       1.0000    0.46040   0.81160   0.61570   Biso      1.000     C          -0.16936600000000002          
         C19       1.0000    0.52100   0.78320   0.92410   Biso      1.000     C          0.065596  
         C20       1.0000    0.61600   0.80140   0.98990   Biso      1.000     C          -0.17330399999999999          
         C21       1.0000    0.60710   0.71960   0.00950   Biso      1.000     C          0.085976  
         C22       1.0000    0.41910   0.60680   0.90550   Biso      1.000     C          0.096765  
         C23       1.0000    0.42040   0.68380   0.88240   Biso      1.000     C          -0.168255           
         C24       1.0000    0.76300   0.52940   0.92830   Biso      1.000     C          0.579992  
         C25       1.0000    0.92410   0.47640   0.21720   Biso      1.000     C          -0.194152           
         C26       1.0000    0.71210   0.54100   0.85000   Biso      1.000     C          -0.0471   
         C27       1.0000    0.49490   0.37320   0.80300   Biso      1.000     C          0.595043  
         C28       1.0000    0.75490   0.63080   0.75730   Biso      1.000     C          0.155856  
         C29       1.0000    0.63620   0.55720   0.69870   Biso      1.000     C          0.151264  
         C30       1.0000    0.55230   0.47640   0.71720   Biso      1.000     C          -0.193884           
         C31       1.0000    0.73810   0.66360   0.64340   Biso      1.000     C          0.206261  
         C32       1.0000    0.44370   0.70860   0.59090   Biso      1.000     C          0.094841  
         C33       1.0000    0.59020   0.46740   0.79230   Biso      1.000     C          -0.051435           
         C34       1.0000    0.52930   0.87300   0.90490   Biso      1.000     C          0.27320500000000003           
         C35       1.0000    0.92550   0.66360   0.14340   Biso      1.000     C          0.20894899999999997           
         C36       1.0000    0.35120   0.81160   0.11570   Biso      1.000     C          -0.16981500000000002          
         C37       1.0000    0.26340   0.68380   0.38240   Biso      1.000     C          -0.167976           
         C38       1.0000    0.18770   0.60680   0.40550   Biso      1.000     C          0.09684   
         C39       1.0000    0.11250   0.71960   0.50950   Biso      1.000     C          0.08524   
         C40       1.0000    0.18540   0.80140   0.48990   Biso      1.000     C          -0.174483           
         C41       1.0000    0.26220   0.78320   0.42410   Biso      1.000     C          0.066717  
         C42       1.0000    0.34370   0.87300   0.40490   Biso      1.000     C          0.272713  
         C43       1.0000    0.42990   0.02080   0.40160   Biso      1.000     C          0.23975700000000003           
         C44       1.0000    0.41370   0.28480   0.50490   Biso      1.000     C          0.06373   
         C45       1.0000    0.39020   0.18140   0.48390   Biso      1.000     C          -0.18221600000000002          
         C46       1.0000    0.45460   0.13080   0.42290   Biso      1.000     C          0.089698  
         C47       1.0000    0.53960   0.18840   0.38430   Biso      1.000     C          -0.16936600000000002          
         C48       1.0000    0.55630   0.29140   0.40910   Biso      1.000     C          0.094841  
         C49       1.0000    0.26190   0.33640   0.35660   Biso      1.000     C          0.206261  
         C50       1.0000    0.44770   0.52360   0.28280   Biso      1.000     C          -0.193884           
         C51       1.0000    0.36380   0.44280   0.30130   Biso      1.000     C          0.151264  
         C52       1.0000    0.24510   0.36920   0.24270   Biso      1.000     C          0.155856  
         C53       1.0000    0.20420   0.37740   0.16720   Biso      1.000     C          -0.22286599999999998          
         C54       1.0000    0.32380   0.86920   0.07710   Biso      1.000     C          0.088168  
         C55       1.0000    0.20880   0.81860   0.01610   Biso      1.000     C          -0.181954           
         C56       1.0000    0.12890   0.71520   0.99510   Biso      1.000     C          0.065361  
         C57       1.0000    0.40910   0.97920   0.09840   Biso      1.000     C          0.240485  
         C58       1.0000    0.47070   0.12700   0.09510   Biso      1.000     C          0.273204  
         C59       1.0000    0.47900   0.21680   0.07590   Biso      1.000     C          0.065597  
         C60       1.0000    0.26490   0.70860   0.09090   Biso      1.000     C          0.094945  
         C61       1.0000    0.38400   0.19860   0.01010   Biso      1.000     C          -0.173305           
         C62       1.0000    0.58090   0.39320   0.09450   Biso      1.000     C          0.096765  
         C63       1.0000    0.57960   0.31620   0.11760   Biso      1.000     C          -0.168255           
         C64       1.0000    0.23700   0.47060   0.07170   Biso      1.000     C          0.579992  
         C65       1.0000    0.28790   0.45900   0.15000   Biso      1.000     C          -0.0471   
         C66       1.0000    0.40980   0.53260   0.20770   Biso      1.000     C          -0.051435           
         C67       1.0000    0.50510   0.62680   0.19700   Biso      1.000     C          0.595043  
         C68       1.0000    0.39290   0.28040   0.99050   Biso      1.000     C          0.085976  
         C69       1.0000    0.59090   0.02080   0.90160   Biso      1.000     C          0.240486  
         C70       1.0000    0.79580   0.62260   0.83280   Biso      1.000     C          -0.22286599999999998          
         C71       1.0000    0.79120   0.18140   0.98390   Biso      1.000     C          -0.181953           
         C72       1.0000    0.87110   0.28480   0.00490   Biso      1.000     C          0.065361  
         C73       1.0000    0.23360   0.47060   0.57170   Biso      1.000     C          0.5804199999999999  
         C74       1.0000    0.12280   0.53260   0.70770   Biso      1.000     C          -0.052722000000000005         
         C75       1.0000    0.12170   0.62680   0.69700   Biso      1.000     C          0.5973149999999999  
         C76       1.0000    0.17320   0.37740   0.66720   Biso      1.000     C          -0.22208699999999998          
         C77       1.0000    0.12410   0.36920   0.74270   Biso      1.000     C          0.15704200000000001           
         C78       1.0000    0.17110   0.45900   0.65000   Biso      1.000     C          -0.047097           
         C79       1.0000    0.07590   0.52360   0.78280   Biso      1.000     C          -0.194152           
         C80       1.0000    0.07450   0.33640   0.85660   Biso      1.000     C          0.20894899999999997           
         C81       1.0000    0.73510   0.29140   0.90910   Biso      1.000     C          0.094945  
         C82       1.0000    0.64880   0.18840   0.88430   Biso      1.000     C          -0.16981500000000002          
         C83       1.0000    0.07900   0.44280   0.80130   Biso      1.000     C          0.14963800000000002           
         C84       1.0000    0.67620   0.13080   0.92290   Biso      1.000     C          0.088166  
         H1        1.0000    0.75850   0.69560   0.60530   Biso      1.000     H          0.090945  
         H2        1.0000    0.38620   0.67200   0.61760   Biso      1.000     H          0.09600299999999999           
         H3        1.0000    0.41510   0.84200   0.65780   Biso      1.000     H          0.135191  
         H4        1.0000    0.66880   0.85380   0.48910   Biso      1.000     H          0.135346  
         H5        1.0000    0.93920   0.26760   0.44690   Biso      1.000     H          0.097997  
         H6        1.0000    0.81150   0.45980   0.62400   Biso      1.000     H          0.096202  
         H7        1.0000    0.68500   0.33060   0.66100   Biso      1.000     H          0.125023  
         H8        1.0000    0.47210   0.42920   0.67990   Biso      1.000     H          0.13146300000000002           
         H9        1.0000    0.51570   0.17140   0.67570   Biso      1.000     H          0.316345  
         H10       1.0000    0.63030   0.68320   0.45290   Biso      1.000     H          0.086483  
         H11       1.0000    0.87610   0.67020   0.87000   Biso      1.000     H          0.13666199999999998           
         H12       1.0000    0.94710   0.31680   0.04710   Biso      1.000     H          0.085463  
         H13       1.0000    0.34430   0.82860   0.82430   Biso      1.000     H          0.315573  
         H14       1.0000    0.35440   0.66940   0.83900   Biso      1.000     H          0.125421  
         H15       1.0000    0.35170   0.54020   0.87600   Biso      1.000     H          0.096072  
         H16       1.0000    0.67160   0.73240   0.05310   Biso      1.000     H          0.09711499999999999           
         H17       1.0000    0.68420   0.86740   0.02020   Biso      1.000     H          0.134632  
         H18       1.0000    0.88960   0.75440   0.74070   Biso      1.000     H          0.32909099999999997           
         H19       1.0000    0.81500   0.14620   0.01090   Biso      1.000     H          0.135096  
         H20       1.0000    0.57310   0.15800   0.84220   Biso      1.000     H          0.135828  
         H21       1.0000    0.71420   0.32800   0.88240   Biso      1.000     H          0.095945  
         H22       1.0000    0.06290   0.30440   0.89470   Biso      1.000     H          0.09009   
         H23       1.0000    0.04290   0.57080   0.82010   Biso      1.000     H          0.13243   
         H24       1.0000    0.20590   0.32980   0.63000   Biso      1.000     H          0.135947  
         H25       1.0000    0.13520   0.24560   0.75930   Biso      1.000     H          0.330068  
         H26       1.0000    0.79410   0.67020   0.37000   Biso      1.000     H          0.135947  
         H27       1.0000    0.81680   0.13260   0.47980   Biso      1.000     H          0.13486800000000002           
         H28       1.0000    0.93710   0.69560   0.10530   Biso      1.000     H          0.09009   
         H29       1.0000    0.95710   0.42920   0.17990   Biso      1.000     H          0.13243   
         H30       1.0000    0.11040   0.24560   0.25930   Biso      1.000     H          0.329092  
         H31       1.0000    0.48430   0.82860   0.32430   Biso      1.000     H          0.316345  
         H32       1.0000    0.31500   0.66940   0.33900   Biso      1.000     H          0.125023  
         H33       1.0000    0.18850   0.54020   0.37600   Biso      1.000     H          0.096202  
         H34       1.0000    0.06080   0.73240   0.55310   Biso      1.000     H          0.097997  
         H35       1.0000    0.18320   0.86740   0.52020   Biso      1.000     H          0.13486800000000002           
         H36       1.0000    0.33120   0.14620   0.51090   Biso      1.000     H          0.135346  
         H37       1.0000    0.58490   0.15800   0.34220   Biso      1.000     H          0.135191  
         H38       1.0000    0.61380   0.32800   0.38240   Biso      1.000     H          0.09600299999999999           
         H39       1.0000    0.24150   0.30440   0.39470   Biso      1.000     H          0.090946  
         H40       1.0000    0.36970   0.31680   0.54710   Biso      1.000     H          0.086483  
         H41       1.0000    0.12390   0.32980   0.13000   Biso      1.000     H          0.13666199999999998           
         H42       1.0000    0.28580   0.67200   0.11760   Biso      1.000     H          0.095945  
         H43       1.0000    0.52790   0.57080   0.32010   Biso      1.000     H          0.13146300000000002           
         H44       1.0000    0.42690   0.84200   0.15780   Biso      1.000     H          0.135828  
         H45       1.0000    0.18500   0.85380   0.98910   Biso      1.000     H          0.135096  
         H46       1.0000    0.05290   0.68320   0.95290   Biso      1.000     H          0.085463  
         H47       1.0000    0.32840   0.26760   0.94690   Biso      1.000     H          0.097116  
         H48       1.0000    0.31580   0.13260   0.97980   Biso      1.000     H          0.134633  
         H49       1.0000    0.64560   0.33060   0.16100   Biso      1.000     H          0.125421  
         H50       1.0000    0.65570   0.17140   0.17570   Biso      1.000     H          0.315573  
         H51       1.0000    0.86480   0.75440   0.24070   Biso      1.000     H          0.330068  
         H52       1.0000    0.64830   0.45980   0.12400   Biso      1.000     H          0.096072  
         N1        1.0000    0.15270   0.65760   0.03090   Biso      1.000     N          -0.214948           
         N2        1.0000    0.81810   0.69960   0.72150   Biso      1.000     N          -0.29329299999999997          
         N3        1.0000    0.88740   0.37700   0.53120   Biso      1.000     N          -0.21417600000000003          
         N4        1.0000    0.62760   0.57860   0.62540   Biso      1.000     N          -0.332458           
         N5        1.0000    0.36970   0.03320   0.06190   Biso      1.000     N          -0.42043400000000003          
         N6        1.0000    0.95100   0.57860   0.12540   Biso      1.000     N          -0.332446           
         N7        1.0000    0.56800   0.13100   0.14790   Biso      1.000     N          -0.170066           
         N8        1.0000    0.48960   0.37700   0.03120   Biso      1.000     N          -0.213902           
         N9        1.0000    0.88150   0.69960   0.22150   Biso      1.000     N          -0.295731           
         N10       1.0000    0.56300   0.13100   0.64790   Biso      1.000     N          -0.17067000000000002          
         N11       1.0000    0.49510   0.34240   0.46910   Biso      1.000     N          -0.21511799999999998          
         N12       1.0000    0.52770   0.03460   0.15000   Biso      1.000     N          -0.245691           
         N13       1.0000    0.50690   0.03460   0.65000   Biso      1.000     N          -0.2458   
         N14       1.0000    0.11260   0.62300   0.46880   Biso      1.000     N          -0.21417600000000003          
         N15       1.0000    0.50490   0.65760   0.53090   Biso      1.000     N          -0.21511799999999998          
         N16       1.0000    0.04900   0.42140   0.87460   Biso      1.000     N          -0.332446           
         N17       1.0000    0.11850   0.30040   0.77850   Biso      1.000     N          -0.295731           
         N18       1.0000    0.51040   0.62300   0.96880   Biso      1.000     N          -0.213902           
         N19       1.0000    0.43200   0.86900   0.85210   Biso      1.000     N          -0.170066           
         N20       1.0000    0.47230   0.96540   0.85000   Biso      1.000     N          -0.245691           
         N21       1.0000    0.63030   0.96680   0.93810   Biso      1.000     N          -0.42043400000000003          
         N22       1.0000    0.84730   0.34240   0.96910   Biso      1.000     N          -0.214948           
         N23       1.0000    0.37240   0.42140   0.37460   Biso      1.000     N          -0.332458           
         N24       1.0000    0.18190   0.30040   0.27850   Biso      1.000     N          -0.29329299999999997          
         N25       1.0000    0.33650   0.96680   0.43810   Biso      1.000     N          -0.41998800000000003          
         N26       1.0000    0.43700   0.86900   0.35210   Biso      1.000     N          -0.17067000000000002          
         N27       1.0000    0.66350   0.03320   0.56190   Biso      1.000     N          -0.41998800000000003          
         N28       1.0000    0.49310   0.96540   0.35000   Biso      1.000     N          -0.245799           
         Ni1       1.0000    0.00000   0.50000   0.00000   Biso      1.000     Ni          0.6882699999999999  
         Ni2       1.0000    0.00000   0.50000   0.50000   Biso      1.000     Ni          0.821682  
         Ni3       1.0000    0.50000   0.50000   0.00000   Biso      1.000     Ni          0.8214670000000001  
         Ni4       1.0000    0.50000   0.50000   0.50000   Biso      1.000     Ni          0.6880350000000001  
         O1        1.0000    0.30812   0.47944   0.01360   Biso      1.000     O          -0.5521189999999999           
         O2        1.0000    0.12355   0.46970   0.06960   Biso      1.000     O          -0.534671           
         O3        1.0000    0.80960   0.28380   0.24130   Biso      1.000     O          -0.60378  
         O4        1.0000    0.95043   0.38686   0.36870   Biso      1.000     O          -0.574867           
         O5        1.0000    0.82868   0.52056   0.48640   Biso      1.000     O          -0.552502           
         O6        1.0000    0.65385   0.53030   0.43040   Biso      1.000     O          -0.534347           
         O7        1.0000    0.47420   0.28380   0.74130   Biso      1.000     O          -0.6027319999999999           
         O8        1.0000    0.43643   0.38686   0.86870   Biso      1.000     O          -0.574398           
         O9        1.0000    0.69188   0.52056   0.98640   Biso      1.000     O          -0.5521189999999999           
         O10       1.0000    0.87645   0.53030   0.93040   Biso      1.000     O          -0.534671           
         O11       1.0000    0.19040   0.71620   0.75870   Biso      1.000     O          -0.60378  
         O12       1.0000    0.04957   0.61314   0.63130   Biso      1.000     O          -0.574867           
         O13       1.0000    0.17132   0.47944   0.51360   Biso      1.000     O          -0.552503           
         O14       1.0000    0.34615   0.46970   0.56960   Biso      1.000     O          -0.534347           
         O15       1.0000    0.56357   0.61314   0.13130   Biso      1.000     O          -0.574398           
         O16       1.0000    0.52580   0.71620   0.25870   Biso      1.000     O          -0.602733 