
##########################################################################
#               Crystallographic Information Format file
#               Produced by PyCifRW module
#
#  This is a CIF file.  CIF has been adopted by the International
#  Union of Crystallography as the standard for data archiving and
#  transmission.
#
#  For information on this file format, follow the CIF links at
#  http://www.iucr.org
##########################################################################

data_image0

_cell_length_a                          10.311
_cell_length_b                          14.3666
_cell_length_c                          18.4014
_cell_angle_alpha                       90
_cell_angle_beta                        90
_cell_angle_gamma                       99.825
_symmetry_space_group_name_H-M          'P 1'
_symmetry_int_tables_number             1
loop_
  _symmetry_equiv_pos_as_xyz
         'x, y, z' 
loop_
  _atom_site_label
  _atom_site_occupancy
  _atom_site_fract_x
  _atom_site_fract_y
  _atom_site_fract_z
  _atom_site_thermal_displace_type
  _atom_site_B_iso_or_equiv
  _atom_site_type_symbol
  _atom_site_charge
         C1        1.0000    0.18890   0.56700   0.69400   Biso      1.000     C          -0.018945           
         C2        1.0000    0.60410   0.56900   0.71660   Biso      1.000     C          0.636559  
         C3        1.0000    0.38560   0.50830   0.65960   Biso      1.000     C          -0.127956           
         C4        1.0000    0.25180   0.50620   0.65350   Biso      1.000     C          -0.11323699999999999          
         C5        1.0000    0.26280   0.62970   0.74100   Biso      1.000     C          -0.09465900000000001          
         C6        1.0000    0.39630   0.63050   0.74810   Biso      1.000     C          -0.10459700000000001          
         C7        1.0000    0.45820   0.56990   0.70790   Biso      1.000     C          -0.025046000000000002         
         C8        1.0000    0.67560   0.12070   0.40800   Biso      1.000     C          -0.029918           
         C9        1.0000    0.63070   0.07800   0.47250   Biso      1.000     C          -0.106429           
         C10       1.0000    0.62590   0.13070   0.53500   Biso      1.000     C          -0.134354           
         C11       1.0000    0.67150   0.22660   0.53480   Biso      1.000     C          -0.032865           
         C12       1.0000    0.72160   0.26860   0.47090   Biso      1.000     C          -0.11310999999999999          
         C13       1.0000    0.72140   0.21640   0.40770   Biso      1.000     C          -0.09904  
         C14       1.0000    0.67090   0.06300   0.34020   Biso      1.000     C          0.637366  
         C15       1.0000    0.04280   0.56290   0.68920   Biso      1.000     C          0.6274770000000001  
         C16       1.0000    0.66770   0.28320   0.60320   Biso      1.000     C          0.636307  
         C17       1.0000    0.10370   0.86950   0.24810   Biso      1.000     C          -0.104598           
         C18       1.0000    0.23720   0.87030   0.24100   Biso      1.000     C          -0.09465900000000001          
         C19       1.0000    0.31110   0.93300   0.19400   Biso      1.000     C          -0.018941999999999997         
         C20       1.0000    0.24820   0.99380   0.15350   Biso      1.000     C          -0.11324400000000001          
         C21       1.0000    0.11440   0.99170   0.15960   Biso      1.000     C          -0.127949           
         C22       1.0000    0.89590   0.93100   0.21660   Biso      1.000     C          0.636559  
         C23       1.0000    0.45720   0.93710   0.18920   Biso      1.000     C          0.6274770000000001  
         C24       1.0000    0.82440   0.37930   0.90800   Biso      1.000     C          -0.029918           
         C25       1.0000    0.86930   0.42200   0.97250   Biso      1.000     C          -0.106429           
         C26       1.0000    0.87410   0.36930   0.03500   Biso      1.000     C          -0.134354           
         C27       1.0000    0.82850   0.27340   0.03480   Biso      1.000     C          -0.032866           
         C28       1.0000    0.77840   0.23140   0.97090   Biso      1.000     C          -0.11310999999999999          
         C29       1.0000    0.77860   0.28360   0.90770   Biso      1.000     C          -0.09904  
         C30       1.0000    0.04180   0.93010   0.20790   Biso      1.000     C          -0.025046000000000002         
         C31       1.0000    0.32440   0.87930   0.59200   Biso      1.000     C          -0.029918           
         C32       1.0000    0.36930   0.92200   0.52750   Biso      1.000     C          -0.106429           
         C33       1.0000    0.37410   0.86930   0.46500   Biso      1.000     C          -0.134354           
         C34       1.0000    0.95720   0.43710   0.31080   Biso      1.000     C          0.6274770000000001  
         C35       1.0000    0.39590   0.43100   0.28340   Biso      1.000     C          0.636559  
         C36       1.0000    0.61440   0.49170   0.34040   Biso      1.000     C          -0.127956           
         C37       1.0000    0.74820   0.49380   0.34650   Biso      1.000     C          -0.113238           
         C38       1.0000    0.81110   0.43300   0.30600   Biso      1.000     C          -0.018945           
         C39       1.0000    0.73720   0.37030   0.25900   Biso      1.000     C          -0.09465900000000001          
         C40       1.0000    0.60370   0.36950   0.25190   Biso      1.000     C          -0.10459600000000001          
         C41       1.0000    0.54180   0.43010   0.29210   Biso      1.000     C          -0.025046000000000002         
         C42       1.0000    0.16770   0.78320   0.89680   Biso      1.000     C          0.636307  
         C43       1.0000    0.17090   0.56300   0.15980   Biso      1.000     C          0.637366  
         C44       1.0000    0.22140   0.71640   0.09230   Biso      1.000     C          -0.09904  
         C45       1.0000    0.22160   0.76860   0.02910   Biso      1.000     C          -0.11311099999999999          
         C46       1.0000    0.17150   0.72660   0.96520   Biso      1.000     C          -0.032865           
         C47       1.0000    0.12590   0.63070   0.96500   Biso      1.000     C          -0.134355           
         C48       1.0000    0.13070   0.57800   0.02750   Biso      1.000     C          -0.10643  
         C49       1.0000    0.17560   0.62070   0.09200   Biso      1.000     C          -0.029916           
         C50       1.0000    0.54280   0.06290   0.81080   Biso      1.000     C          0.6274770000000001  
         C51       1.0000    0.10410   0.06900   0.78340   Biso      1.000     C          0.636559  
         C52       1.0000    0.88560   0.00830   0.84040   Biso      1.000     C          -0.127956           
         C53       1.0000    0.75180   0.00620   0.84650   Biso      1.000     C          -0.113238           
         C54       1.0000    0.68890   0.06700   0.80600   Biso      1.000     C          -0.018945           
         C55       1.0000    0.76280   0.12970   0.75900   Biso      1.000     C          -0.09465900000000001          
         C56       1.0000    0.89630   0.13050   0.75190   Biso      1.000     C          -0.10459600000000001          
         C57       1.0000    0.95820   0.06990   0.79210   Biso      1.000     C          -0.025046000000000002         
         C58       1.0000    0.33230   0.71680   0.39680   Biso      1.000     C          0.636307  
         C59       1.0000    0.32910   0.93700   0.65980   Biso      1.000     C          0.637366  
         C60       1.0000    0.27860   0.78360   0.59230   Biso      1.000     C          -0.09904  
         C61       1.0000    0.27840   0.73140   0.52910   Biso      1.000     C          -0.11311099999999999          
         C62       1.0000    0.32850   0.77340   0.46520   Biso      1.000     C          -0.032865           
         C63       1.0000    0.82910   0.43700   0.84020   Biso      1.000     C          0.637367  
         C64       1.0000    0.83230   0.21680   0.10320   Biso      1.000     C          0.636307  
         Ca1       1.0000    0.62367   0.82110   0.30815   Biso      1.000     Ca          1.5247959999999998  
         Ca2       1.0000    0.87633   0.67890   0.80815   Biso      1.000     Ca          1.5247959999999998  
         Ca3       1.0000    0.37633   0.17890   0.69185   Biso      1.000     Ca          1.5247959999999998  
         Ca4       1.0000    0.12367   0.32110   0.19185   Biso      1.000     Ca          1.5247959999999998  
         H1        1.0000    0.79700   0.53650   0.37820   Biso      1.000     H          0.118848  
         H2        1.0000    0.74760   0.25380   0.86470   Biso      1.000     H          0.111847  
         H3        1.0000    0.74410   0.16720   0.97030   Biso      1.000     H          0.12765   
         H4        1.0000    0.90830   0.39880   0.07750   Biso      1.000     H          0.10801600000000001           
         H5        1.0000    0.89670   0.48710   0.97400   Biso      1.000     H          0.107924  
         H6        1.0000    0.07320   0.03160   0.13130   Biso      1.000     H          0.11620899999999999           
         H7        1.0000    0.27740   0.82840   0.26800   Biso      1.000     H          0.117702  
         H8        1.0000    0.75240   0.24620   0.36470   Biso      1.000     H          0.111847  
         H9        1.0000    0.44510   0.67240   0.78040   Biso      1.000     H          0.117224  
         H10       1.0000    0.75590   0.33280   0.47030   Biso      1.000     H          0.12765   
         H11       1.0000    0.59170   0.10120   0.57750   Biso      1.000     H          0.10801600000000001           
         H12       1.0000    0.60330   0.01290   0.47400   Biso      1.000     H          0.107924  
         H13       1.0000    0.57320   0.53160   0.36870   Biso      1.000     H          0.11621   
         H14       1.0000    0.05490   0.82760   0.28040   Biso      1.000     H          0.117224  
         H15       1.0000    0.22260   0.67160   0.76800   Biso      1.000     H          0.117702  
         H16       1.0000    0.29700   0.03650   0.12180   Biso      1.000     H          0.118848  
         H17       1.0000    0.42680   0.46840   0.63130   Biso      1.000     H          0.11621   
         H18       1.0000    0.77740   0.32840   0.23200   Biso      1.000     H          0.117702  
         H19       1.0000    0.55490   0.32760   0.21960   Biso      1.000     H          0.11722300000000001           
         H20       1.0000    0.20300   0.46350   0.62180   Biso      1.000     H          0.118848  
         H21       1.0000    0.25590   0.83280   0.02970   Biso      1.000     H          0.12765   
         H22       1.0000    0.09170   0.60120   0.92250   Biso      1.000     H          0.10801600000000001           
         H23       1.0000    0.10330   0.51290   0.02600   Biso      1.000     H          0.107924  
         H24       1.0000    0.92680   0.96840   0.86870   Biso      1.000     H          0.11621   
         H25       1.0000    0.25240   0.74620   0.13530   Biso      1.000     H          0.111847  
         H26       1.0000    0.72260   0.17160   0.73200   Biso      1.000     H          0.117702  
         H27       1.0000    0.94510   0.17240   0.71960   Biso      1.000     H          0.11722300000000001           
         H28       1.0000    0.24760   0.75380   0.63530   Biso      1.000     H          0.111847  
         H29       1.0000    0.24410   0.66720   0.52970   Biso      1.000     H          0.12765   
         H30       1.0000    0.40830   0.89880   0.42250   Biso      1.000     H          0.10801600000000001           
         H31       1.0000    0.39670   0.98710   0.52600   Biso      1.000     H          0.107924  
         H32       1.0000    0.70300   0.96350   0.87820   Biso      1.000     H          0.118848  
         O1        1.0000    0.99360   0.62960   0.71333   Biso      1.000     O          -0.673288           
         O2        1.0000    0.29020   0.89240   0.71702   Biso      1.000     O          -0.555222           
         O3        1.0000    0.37270   0.02280   0.65643   Biso      1.000     O          -0.675241           
         O4        1.0000    0.24190   0.64570   0.39192   Biso      1.000     O          -0.535234           
         O5        1.0000    0.41810   0.74290   0.35070   Biso      1.000     O          -0.685271           
         O6        1.0000    0.15380   0.01930   0.82868   Biso      1.000     O          -0.5773020000000001           
         O7        1.0000    0.16330   0.11480   0.73270   Biso      1.000     O          -0.683792           
         O8        1.0000    0.12730   0.47720   0.15643   Biso      1.000     O          -0.675241           
         O9        1.0000    0.49360   0.12960   0.78667   Biso      1.000     O          -0.673288           
         O10       1.0000    0.20980   0.60760   0.21702   Biso      1.000     O          -0.555222           
         O11       1.0000    0.33670   0.38520   0.23270   Biso      1.000     O          -0.683792           
         O12       1.0000    0.25810   0.85430   0.89192   Biso      1.000     O          -0.535234           
         O13       1.0000    0.08190   0.75710   0.85070   Biso      1.000     O          -0.685271           
         O14       1.0000    0.34620   0.48070   0.32868   Biso      1.000     O          -0.5773020000000001           
         O15       1.0000    0.97730   0.48850   0.66135   Biso      1.000     O          -0.5556909999999999           
         O16       1.0000    0.47730   0.98850   0.83865   Biso      1.000     O          -0.55569  
         O17       1.0000    0.66330   0.61480   0.76730   Biso      1.000     O          -0.683792           
         O18       1.0000    0.00640   0.37040   0.28667   Biso      1.000     O          -0.673288           
         O19       1.0000    0.91810   0.24290   0.14930   Biso      1.000     O          -0.685271           
         O20       1.0000    0.02270   0.51150   0.33865   Biso      1.000     O          -0.55569  
         O21       1.0000    0.70980   0.10760   0.28298   Biso      1.000     O          -0.555222           
         O22       1.0000    0.62730   0.97720   0.34357   Biso      1.000     O          -0.675241           
         O23       1.0000    0.75810   0.35430   0.60808   Biso      1.000     O          -0.535234           
         O24       1.0000    0.65380   0.51930   0.67132   Biso      1.000     O          -0.577303           
         O25       1.0000    0.84620   0.98070   0.17132   Biso      1.000     O          -0.5773020000000001           
         O26       1.0000    0.58190   0.25710   0.64930   Biso      1.000     O          -0.685271           
         O27       1.0000    0.52270   0.01150   0.16135   Biso      1.000     O          -0.55569  
         O28       1.0000    0.50640   0.87040   0.21333   Biso      1.000     O          -0.673288           
         O29       1.0000    0.79020   0.39240   0.78298   Biso      1.000     O          -0.5552229999999999           
         O30       1.0000    0.87270   0.52280   0.84357   Biso      1.000     O          -0.675241           
         O31       1.0000    0.74190   0.14570   0.10808   Biso      1.000     O          -0.535234           
         O32       1.0000    0.83670   0.88520   0.26730   Biso      1.000     O          -0.683792           
         Zn1       1.0000    0.79259   0.44698   0.68617   Biso      1.000     Zn          0.9532719999999999  
         Zn2       1.0000    0.29259   0.94698   0.81383   Biso      1.000     Zn          0.9532709999999999  
         Zn3       1.0000    0.20741   0.55302   0.31383   Biso      1.000     Zn          0.9532709999999999  
         Zn4       1.0000    0.70741   0.05302   0.18617   Biso      1.000     Zn          0.9532709999999999 