
##########################################################################
#               Crystallographic Information Format file
#               Produced by PyCifRW module
#
#  This is a CIF file.  CIF has been adopted by the International
#  Union of Crystallography as the standard for data archiving and
#  transmission.
#
#  For information on this file format, follow the CIF links at
#  http://www.iucr.org
##########################################################################

data_image0

_cell_length_a                          10.4064
_cell_length_b                          14.4984
_cell_length_c                          18.5332
_cell_angle_alpha                       90
_cell_angle_beta                        90
_cell_angle_gamma                       100.153
_symmetry_space_group_name_H-M          'P 1'
_symmetry_int_tables_number             1
loop_
  _symmetry_equiv_pos_as_xyz
         'x, y, z' 
loop_
  _atom_site_label
  _atom_site_occupancy
  _atom_site_fract_x
  _atom_site_fract_y
  _atom_site_fract_z
  _atom_site_thermal_displace_type
  _atom_site_B_iso_or_equiv
  _atom_site_type_symbol
  _atom_site_charge
         C1        1.0000    0.02930   0.93690   0.70320   Biso      1.000     C          -0.024598           
         C2        1.0000    0.26130   0.73130   0.03380   Biso      1.000     C          -0.101075           
         C3        1.0000    0.26680   0.78180   0.09740   Biso      1.000     C          -0.102235           
         C4        1.0000    0.32710   0.87440   0.09840   Biso      1.000     C          -0.023305000000000003         
         C5        1.0000    0.37870   0.91510   0.03530   Biso      1.000     C          -0.114726           
         C6        1.0000    0.37660   0.86310   0.97290   Biso      1.000     C          -0.135724           
         C7        1.0000    0.31670   0.77080   0.97160   Biso      1.000     C          -0.028408999999999997         
         C8        1.0000    0.88520   0.93730   0.71230   Biso      1.000     C          0.640538  
         C9        1.0000    0.44140   0.94090   0.68420   Biso      1.000     C          0.623526  
         C10       1.0000    0.23720   0.00000   0.65020   Biso      1.000     C          -0.118165           
         C11       1.0000    0.10260   0.99830   0.65680   Biso      1.000     C          -0.131877           
         C12       1.0000    0.31260   0.71450   0.90270   Biso      1.000     C          0.6307189999999999  
         C13       1.0000    0.08920   0.87650   0.74280   Biso      1.000     C          -0.104902           
         C14       1.0000    0.29670   0.93890   0.68950   Biso      1.000     C          -0.014846000000000002         
         C15       1.0000    0.83770   0.43130   0.33310   Biso      1.000     C          0.625592  
         C16       1.0000    0.81260   0.21450   0.59730   Biso      1.000     C          0.6307189999999999  
         C17       1.0000    0.76130   0.23130   0.46620   Biso      1.000     C          -0.101075           
         C18       1.0000    0.76680   0.28180   0.40260   Biso      1.000     C          -0.102235           
         C19       1.0000    0.82710   0.37440   0.40160   Biso      1.000     C          -0.023305000000000003         
         C20       1.0000    0.87870   0.41510   0.46470   Biso      1.000     C          -0.114727           
         C21       1.0000    0.81670   0.27080   0.52840   Biso      1.000     C          -0.028412           
         C22       1.0000    0.61480   0.56270   0.21230   Biso      1.000     C          0.640538  
         C23       1.0000    0.05860   0.55910   0.18420   Biso      1.000     C          0.623526  
         C24       1.0000    0.22220   0.87600   0.73570   Biso      1.000     C          -0.100895           
         C25       1.0000    0.26280   0.50000   0.15020   Biso      1.000     C          -0.118163           
         C26       1.0000    0.33770   0.93130   0.16690   Biso      1.000     C          0.625592  
         C27       1.0000    0.72220   0.37600   0.76430   Biso      1.000     C          -0.100896           
         C28       1.0000    0.11480   0.06270   0.28770   Biso      1.000     C          0.640538  
         C29       1.0000    0.55860   0.05910   0.31580   Biso      1.000     C          0.623526  
         C30       1.0000    0.76280   0.00000   0.34980   Biso      1.000     C          -0.118164           
         C31       1.0000    0.89740   0.00170   0.34320   Biso      1.000     C          -0.131885           
         C32       1.0000    0.97070   0.06310   0.29680   Biso      1.000     C          -0.024591           
         C33       1.0000    0.91080   0.12350   0.25720   Biso      1.000     C          -0.104902           
         C34       1.0000    0.77780   0.12400   0.26430   Biso      1.000     C          -0.100897           
         C35       1.0000    0.70330   0.06110   0.31050   Biso      1.000     C          -0.014844999999999999         
         C36       1.0000    0.16230   0.56870   0.66690   Biso      1.000     C          0.625592  
         C37       1.0000    0.18740   0.78550   0.40270   Biso      1.000     C          0.6307189999999999  
         C38       1.0000    0.79670   0.43890   0.81050   Biso      1.000     C          -0.014849000000000001         
         C39       1.0000    0.23870   0.76870   0.53380   Biso      1.000     C          -0.101076           
         C40       1.0000    0.17290   0.62560   0.59840   Biso      1.000     C          -0.02331  
         C41       1.0000    0.12130   0.58490   0.53530   Biso      1.000     C          -0.114725           
         C42       1.0000    0.12340   0.63690   0.47290   Biso      1.000     C          -0.135724           
         C43       1.0000    0.18330   0.72920   0.47160   Biso      1.000     C          -0.028408999999999997         
         C44       1.0000    0.38520   0.43730   0.78770   Biso      1.000     C          0.640538  
         C45       1.0000    0.94140   0.44090   0.81580   Biso      1.000     C          0.623526  
         C46       1.0000    0.73720   0.50000   0.84980   Biso      1.000     C          -0.118158           
         C47       1.0000    0.60260   0.49830   0.84320   Biso      1.000     C          -0.131885           
         C48       1.0000    0.52930   0.43690   0.79680   Biso      1.000     C          -0.024591           
         C49       1.0000    0.58920   0.37650   0.75720   Biso      1.000     C          -0.104902           
         C50       1.0000    0.23320   0.71820   0.59740   Biso      1.000     C          -0.102229           
         C51       1.0000    0.39740   0.50170   0.15680   Biso      1.000     C          -0.131885           
         C52       1.0000    0.87660   0.36310   0.52710   Biso      1.000     C          -0.135721           
         C53       1.0000    0.41080   0.62350   0.24280   Biso      1.000     C          -0.10490799999999999          
         C54       1.0000    0.47070   0.56310   0.20320   Biso      1.000     C          -0.024586           
         C55       1.0000    0.68330   0.22920   0.02840   Biso      1.000     C          -0.028417           
         C56       1.0000    0.62340   0.13690   0.02710   Biso      1.000     C          -0.135724           
         C57       1.0000    0.62130   0.08490   0.96470   Biso      1.000     C          -0.114727           
         C58       1.0000    0.73320   0.21820   0.90260   Biso      1.000     C          -0.102239           
         C59       1.0000    0.67290   0.12560   0.90160   Biso      1.000     C          -0.023301           
         C60       1.0000    0.68740   0.28550   0.09730   Biso      1.000     C          0.63072   
         C61       1.0000    0.66230   0.06870   0.83310   Biso      1.000     C          0.625591  
         C62       1.0000    0.20330   0.56110   0.18950   Biso      1.000     C          -0.014846000000000002         
         C63       1.0000    0.27780   0.62400   0.23570   Biso      1.000     C          -0.10089400000000001          
         C64       1.0000    0.73870   0.26870   0.96620   Biso      1.000     C          -0.101066           
         H1        1.0000    0.06280   0.03900   0.62940   Biso      1.000     H          0.110614  
         H2        1.0000    0.91540   0.47840   0.46540   Biso      1.000     H          0.108143  
         H3        1.0000    0.26090   0.83350   0.76190   Biso      1.000     H          0.11828399999999999           
         H4        1.0000    0.71910   0.16920   0.46670   Biso      1.000     H          0.11724000000000001           
         H5        1.0000    0.72980   0.25340   0.36070   Biso      1.000     H          0.114473  
         H6        1.0000    0.91610   0.39070   0.56870   Biso      1.000     H          0.100841  
         H7        1.0000    0.77020   0.24660   0.86070   Biso      1.000     H          0.114473  
         H8        1.0000    0.43720   0.46100   0.12940   Biso      1.000     H          0.110615  
         H9        1.0000    0.45990   0.66470   0.27490   Biso      1.000     H          0.11565299999999999           
         H10       1.0000    0.23910   0.66650   0.26190   Biso      1.000     H          0.11828399999999999           
         H11       1.0000    0.78090   0.33080   0.96670   Biso      1.000     H          0.11724000000000001           
         H12       1.0000    0.28640   0.04270   0.61920   Biso      1.000     H          0.12050699999999999           
         H13       1.0000    0.58460   0.02160   0.96540   Biso      1.000     H          0.108143  
         H14       1.0000    0.58390   0.10930   0.06870   Biso      1.000     H          0.100841  
         H15       1.0000    0.21360   0.45730   0.11920   Biso      1.000     H          0.12050699999999999           
         H16       1.0000    0.41610   0.89070   0.93130   Biso      1.000     H          0.100841  
         H17       1.0000    0.04010   0.83530   0.77490   Biso      1.000     H          0.11565299999999999           
         H18       1.0000    0.22980   0.75340   0.13930   Biso      1.000     H          0.114473  
         H19       1.0000    0.71360   0.95730   0.38080   Biso      1.000     H          0.12050699999999999           
         H20       1.0000    0.93720   0.96100   0.37060   Biso      1.000     H          0.110615  
         H21       1.0000    0.95990   0.16470   0.22510   Biso      1.000     H          0.11565299999999999           
         H22       1.0000    0.73910   0.16650   0.23810   Biso      1.000     H          0.11828399999999999           
         H23       1.0000    0.28090   0.83080   0.53330   Biso      1.000     H          0.11724100000000001           
         H24       1.0000    0.41540   0.97840   0.03460   Biso      1.000     H          0.108143  
         H25       1.0000    0.27020   0.74660   0.63930   Biso      1.000     H          0.114472  
         H26       1.0000    0.08390   0.60930   0.43130   Biso      1.000     H          0.100841  
         H27       1.0000    0.78640   0.54270   0.88080   Biso      1.000     H          0.12050699999999999           
         H28       1.0000    0.56280   0.53900   0.87060   Biso      1.000     H          0.110615  
         H29       1.0000    0.54010   0.33530   0.72510   Biso      1.000     H          0.11565299999999999           
         H30       1.0000    0.76090   0.33350   0.73810   Biso      1.000     H          0.11828399999999999           
         H31       1.0000    0.21910   0.66920   0.03330   Biso      1.000     H          0.11724100000000001           
         H32       1.0000    0.08460   0.52160   0.53460   Biso      1.000     H          0.108143  
         O1        1.0000    0.29460   0.88740   0.22341   Biso      1.000     O          -0.5536409999999999           
         O2        1.0000    0.22420   0.64340   0.89956   Biso      1.000     O          -0.528825           
         O3        1.0000    0.39240   0.74190   0.85425   Biso      1.000     O          -0.693962           
         O4        1.0000    0.48700   0.87110   0.70415   Biso      1.000     O          -0.673391           
         O5        1.0000    0.83530   0.98720   0.66749   Biso      1.000     O          -0.591018           
         O6        1.0000    0.39020   0.01530   0.16426   Biso      1.000     O          -0.674355           
         O7        1.0000    0.82600   0.88990   0.75990   Biso      1.000     O          -0.677487           
         O8        1.0000    0.00910   0.51560   0.84043   Biso      1.000     O          -0.555284           
         O9        1.0000    0.32600   0.38990   0.74010   Biso      1.000     O          -0.677487           
         O10       1.0000    0.51300   0.12890   0.29585   Biso      1.000     O          -0.673391           
         O11       1.0000    0.49090   0.98440   0.34043   Biso      1.000     O          -0.555284           
         O12       1.0000    0.10980   0.48470   0.66426   Biso      1.000     O          -0.674355           
         O13       1.0000    0.20540   0.61260   0.72341   Biso      1.000     O          -0.5536409999999999           
         O14       1.0000    0.27580   0.85660   0.39956   Biso      1.000     O          -0.528824           
         O15       1.0000    0.10760   0.75810   0.35425   Biso      1.000     O          -0.6939609999999999           
         O16       1.0000    0.50910   0.01560   0.65957   Biso      1.000     O          -0.555284           
         O17       1.0000    0.33530   0.48720   0.83251   Biso      1.000     O          -0.591018           
         O18       1.0000    0.98700   0.37110   0.79585   Biso      1.000     O          -0.673391           
         O19       1.0000    0.89020   0.51530   0.33574   Biso      1.000     O          -0.674355           
         O20       1.0000    0.17400   0.11010   0.24010   Biso      1.000     O          -0.677487           
         O21       1.0000    0.72420   0.14340   0.60044   Biso      1.000     O          -0.528824           
         O22       1.0000    0.16470   0.01280   0.33251   Biso      1.000     O          -0.591018           
         O23       1.0000    0.79460   0.38740   0.27659   Biso      1.000     O          -0.5536409999999999           
         O24       1.0000    0.77580   0.35660   0.10044   Biso      1.000     O          -0.528825           
         O25       1.0000    0.70540   0.11260   0.77659   Biso      1.000     O          -0.5536409999999999           
         O26       1.0000    0.60980   0.98470   0.83574   Biso      1.000     O          -0.674355           
         O27       1.0000    0.60760   0.25810   0.14575   Biso      1.000     O          -0.693962           
         O28       1.0000    0.01300   0.62890   0.20415   Biso      1.000     O          -0.673391           
         O29       1.0000    0.66470   0.51280   0.16749   Biso      1.000     O          -0.591018           
         O30       1.0000    0.67400   0.61010   0.25990   Biso      1.000     O          -0.677487           
         O31       1.0000    0.89240   0.24190   0.64575   Biso      1.000     O          -0.693962           
         O32       1.0000    0.99090   0.48440   0.15957   Biso      1.000     O          -0.555284           
         Sr1       1.0000    0.39346   0.18249   0.19530   Biso      1.000     Sr          1.572158  
         Sr2       1.0000    0.10654   0.31751   0.69530   Biso      1.000     Sr          1.572158  
         Sr3       1.0000    0.60654   0.81751   0.80470   Biso      1.000     Sr          1.572158  
         Sr4       1.0000    0.89346   0.68249   0.30470   Biso      1.000     Sr          1.572158  
         Zn1       1.0000    0.30583   0.94400   0.31875   Biso      1.000     Zn          0.9504319999999999  
         Zn2       1.0000    0.19417   0.55600   0.81875   Biso      1.000     Zn          0.9504319999999999  
         Zn3       1.0000    0.69417   0.05600   0.68125   Biso      1.000     Zn          0.9504319999999999  
         Zn4       1.0000    0.80583   0.44400   0.18125   Biso      1.000     Zn          0.9504319999999999 