
##########################################################################
#               Crystallographic Information Format file
#               Produced by PyCifRW module
#
#  This is a CIF file.  CIF has been adopted by the International
#  Union of Crystallography as the standard for data archiving and
#  transmission.
#
#  For information on this file format, follow the CIF links at
#  http://www.iucr.org
##########################################################################

data_image0

_cell_length_a                          12.8842
_cell_length_b                          14.5956
_cell_length_c                          14.5956
_cell_angle_alpha                       90
_cell_angle_beta                        90
_cell_angle_gamma                       90
_symmetry_space_group_name_H-M          'P 1'
_symmetry_int_tables_number             1
loop_
  _symmetry_equiv_pos_as_xyz
         'x, y, z' 
loop_
  _atom_site_label
  _atom_site_occupancy
  _atom_site_fract_x
  _atom_site_fract_y
  _atom_site_fract_z
  _atom_site_thermal_displace_type
  _atom_site_B_iso_or_equiv
  _atom_site_type_symbol
  _atom_site_charge
         C1        1.0000    0.22660   0.93700   0.63460   Biso      1.000     C          -0.5630390000000001           
         C2        1.0000    0.22660   0.06300   0.36540   Biso      1.000     C          -0.5630390000000001           
         C3        1.0000    0.44450   0.58020   0.83530   Biso      1.000     C          0.55594   
         C4        1.0000    0.36990   0.62890   0.77340   Biso      1.000     C          -0.024462           
         C5        1.0000    0.40660   0.68420   0.70230   Biso      1.000     C          -0.089798           
         C6        1.0000    0.33760   0.73330   0.64650   Biso      1.000     C          -0.175604           
         C7        1.0000    0.23230   0.72560   0.66420   Biso      1.000     C          0.176095  
         C8        1.0000    0.19500   0.67280   0.73370   Biso      1.000     C          -0.180583           
         C9        1.0000    0.26250   0.62540   0.78910   Biso      1.000     C          -0.078067           
         C10       1.0000    0.22660   0.36540   0.93700   Biso      1.000     C          -0.563038           
         C11       1.0000    0.15530   0.40530   0.86950   Biso      1.000     C          0.38713200000000003           
         C12       1.0000    0.73230   0.22560   0.83580   Biso      1.000     C          0.176094  
         C13       1.0000    0.15530   0.13050   0.40530   Biso      1.000     C          0.38713200000000003           
         C14       1.0000    0.26250   0.21090   0.62540   Biso      1.000     C          -0.078074           
         C15       1.0000    0.23230   0.33580   0.72560   Biso      1.000     C          0.176094  
         C16       1.0000    0.33760   0.35350   0.73330   Biso      1.000     C          -0.175604           
         C17       1.0000    0.40660   0.29770   0.68420   Biso      1.000     C          -0.089798           
         C18       1.0000    0.36990   0.22660   0.62890   Biso      1.000     C          -0.024461           
         C19       1.0000    0.44450   0.16470   0.58020   Biso      1.000     C          0.55594   
         C20       1.0000    0.22660   0.63460   0.06300   Biso      1.000     C          -0.5630390000000001           
         C21       1.0000    0.15530   0.59470   0.13050   Biso      1.000     C          0.38713200000000003           
         C22       1.0000    0.07880   0.56070   0.25830   Biso      1.000     C          0.068101  
         C23       1.0000    0.26250   0.78910   0.37460   Biso      1.000     C          -0.078073           
         C24       1.0000    0.19500   0.73370   0.32720   Biso      1.000     C          -0.180583           
         C25       1.0000    0.23230   0.66420   0.27440   Biso      1.000     C          0.1761    
         C26       1.0000    0.19500   0.26630   0.67280   Biso      1.000     C          -0.180576           
         C27       1.0000    0.33760   0.64650   0.26670   Biso      1.000     C          -0.175604           
         C28       1.0000    0.15530   0.86950   0.59470   Biso      1.000     C          0.38713200000000003           
         C29       1.0000    0.26250   0.37460   0.21090   Biso      1.000     C          -0.078074           
         C30       1.0000    0.83760   0.23330   0.85350   Biso      1.000     C          -0.175604           
         C31       1.0000    0.90660   0.18420   0.79770   Biso      1.000     C          -0.089798           
         C32       1.0000    0.86990   0.12890   0.72660   Biso      1.000     C          -0.024461           
         C33       1.0000    0.94450   0.08020   0.66470   Biso      1.000     C          0.55594   
         C34       1.0000    0.72660   0.56300   0.13460   Biso      1.000     C          -0.5630390000000001           
         C35       1.0000    0.65530   0.63050   0.09470   Biso      1.000     C          0.38713200000000003           
         C36       1.0000    0.57880   0.75830   0.06070   Biso      1.000     C          0.0681    
         C37       1.0000    0.76250   0.87460   0.28910   Biso      1.000     C          -0.078073           
         C38       1.0000    0.69500   0.82720   0.23370   Biso      1.000     C          -0.180583           
         C39       1.0000    0.73230   0.77440   0.16420   Biso      1.000     C          0.1761    
         C40       1.0000    0.83760   0.76670   0.14650   Biso      1.000     C          -0.175604           
         C41       1.0000    0.07880   0.25830   0.43930   Biso      1.000     C          0.068101  
         C42       1.0000    0.90660   0.81580   0.20230   Biso      1.000     C          -0.089798           
         C43       1.0000    0.94450   0.91980   0.33530   Biso      1.000     C          0.55594   
         C44       1.0000    0.76250   0.12540   0.71090   Biso      1.000     C          -0.078074           
         C45       1.0000    0.57880   0.24170   0.93930   Biso      1.000     C          0.0681    
         C46       1.0000    0.65530   0.36950   0.90530   Biso      1.000     C          0.38713200000000003           
         C47       1.0000    0.72660   0.43700   0.86540   Biso      1.000     C          -0.5630390000000001           
         C48       1.0000    0.44450   0.41980   0.16470   Biso      1.000     C          0.55594   
         C49       1.0000    0.36990   0.37110   0.22660   Biso      1.000     C          -0.024461           
         C50       1.0000    0.40660   0.31580   0.29770   Biso      1.000     C          -0.089798           
         C51       1.0000    0.33760   0.26670   0.35350   Biso      1.000     C          -0.175604           
         C52       1.0000    0.23230   0.27440   0.33580   Biso      1.000     C          0.176094  
         C53       1.0000    0.19500   0.32720   0.26630   Biso      1.000     C          -0.180576           
         C54       1.0000    0.86990   0.87110   0.27340   Biso      1.000     C          -0.024461           
         C55       1.0000    0.40660   0.70230   0.31580   Biso      1.000     C          -0.089798           
         C56       1.0000    0.07880   0.43930   0.74170   Biso      1.000     C          0.0681    
         C57       1.0000    0.44450   0.83530   0.41980   Biso      1.000     C          0.55594   
         C58       1.0000    0.07880   0.74170   0.56070   Biso      1.000     C          0.0681    
         C59       1.0000    0.36990   0.77340   0.37110   Biso      1.000     C          -0.024461           
         C60       1.0000    0.94450   0.33530   0.08020   Biso      1.000     C          0.55594   
         C61       1.0000    0.86990   0.27340   0.12890   Biso      1.000     C          -0.024462           
         C62       1.0000    0.90660   0.20230   0.18420   Biso      1.000     C          -0.089798           
         C63       1.0000    0.83760   0.14650   0.23330   Biso      1.000     C          -0.175604           
         C64       1.0000    0.73230   0.16420   0.22560   Biso      1.000     C          0.176095  
         C65       1.0000    0.69500   0.23370   0.17280   Biso      1.000     C          -0.180583           
         C66       1.0000    0.76250   0.28910   0.12540   Biso      1.000     C          -0.078067           
         C67       1.0000    0.57880   0.06070   0.24170   Biso      1.000     C          0.068101  
         C68       1.0000    0.65530   0.09470   0.36950   Biso      1.000     C          0.38713200000000003           
         C69       1.0000    0.69500   0.17280   0.76630   Biso      1.000     C          -0.180576           
         C70       1.0000    0.94450   0.66470   0.91980   Biso      1.000     C          0.55594   
         C71       1.0000    0.86990   0.72660   0.87110   Biso      1.000     C          -0.024462           
         C72       1.0000    0.90660   0.79770   0.81580   Biso      1.000     C          -0.089798           
         C73       1.0000    0.83760   0.85350   0.76670   Biso      1.000     C          -0.175604           
         C74       1.0000    0.73230   0.83580   0.77440   Biso      1.000     C          0.176095  
         C75       1.0000    0.69500   0.76630   0.82720   Biso      1.000     C          -0.180583           
         C76       1.0000    0.76250   0.71090   0.87460   Biso      1.000     C          -0.078067           
         C77       1.0000    0.57880   0.93930   0.75830   Biso      1.000     C          0.068101  
         C78       1.0000    0.72660   0.86540   0.56300   Biso      1.000     C          -0.563038           
         C79       1.0000    0.72660   0.13460   0.43700   Biso      1.000     C          -0.563038           
         C80       1.0000    0.65530   0.90530   0.63050   Biso      1.000     C          0.38713200000000003           
         H1        1.0000    0.23650   0.59040   0.83800   Biso      1.000     H          0.115577  
         H2        1.0000    0.12310   0.66880   0.74370   Biso      1.000     H          0.12493399999999999           
         H3        1.0000    0.36200   0.77030   0.59850   Biso      1.000     H          0.133778  
         H4        1.0000    0.47840   0.68860   0.69170   Biso      1.000     H          0.121956  
         H5        1.0000    0.19190   0.00420   0.36060   Biso      1.000     H          0.20011400000000001           
         H6        1.0000    0.12310   0.33120   0.25630   Biso      1.000     H          0.12493399999999999           
         H7        1.0000    0.28730   0.05700   0.40430   Biso      1.000     H          0.19447899999999999           
         H8        1.0000    0.06360   0.32120   0.44220   Biso      1.000     H          0.11591900000000001           
         H9        1.0000    0.23650   0.40960   0.16200   Biso      1.000     H          0.115577  
         H10       1.0000    0.06360   0.67880   0.55780   Biso      1.000     H          0.11591900000000001           
         H11       1.0000    0.36200   0.22970   0.40150   Biso      1.000     H          0.133778  
         H12       1.0000    0.24780   0.08320   0.30490   Biso      1.000     H          0.187225  
         H13       1.0000    0.28730   0.94300   0.59570   Biso      1.000     H          0.19447899999999999           
         H14       1.0000    0.73650   0.66200   0.90960   Biso      1.000     H          0.115577  
         H15       1.0000    0.19190   0.99580   0.63940   Biso      1.000     H          0.20011400000000001           
         H16       1.0000    0.56360   0.94220   0.82120   Biso      1.000     H          0.11591900000000001           
         H17       1.0000    0.47840   0.31140   0.30830   Biso      1.000     H          0.121956  
         H18       1.0000    0.62310   0.75630   0.83120   Biso      1.000     H          0.12493399999999999           
         H19       1.0000    0.86200   0.90150   0.72970   Biso      1.000     H          0.133778  
         H20       1.0000    0.97840   0.80830   0.81140   Biso      1.000     H          0.121956  
         H21       1.0000    0.69190   0.13940   0.49580   Biso      1.000     H          0.20011400000000001           
         H22       1.0000    0.74780   0.19510   0.41680   Biso      1.000     H          0.187225  
         H23       1.0000    0.78730   0.09570   0.44300   Biso      1.000     H          0.19447899999999999           
         H24       1.0000    0.56360   0.05780   0.17880   Biso      1.000     H          0.11591900000000001           
         H25       1.0000    0.73650   0.33800   0.09040   Biso      1.000     H          0.115577  
         H26       1.0000    0.62310   0.24370   0.16880   Biso      1.000     H          0.12493399999999999           
         H27       1.0000    0.86200   0.09850   0.27030   Biso      1.000     H          0.133778  
         H28       1.0000    0.97840   0.19170   0.18860   Biso      1.000     H          0.121956  
         H29       1.0000    0.24780   0.91680   0.69510   Biso      1.000     H          0.187225  
         H30       1.0000    0.69190   0.49580   0.86060   Biso      1.000     H          0.20011400000000001           
         H31       1.0000    0.62310   0.16880   0.75630   Biso      1.000     H          0.12493399999999999           
         H32       1.0000    0.78730   0.44300   0.90430   Biso      1.000     H          0.19447899999999999           
         H33       1.0000    0.19190   0.36060   0.99580   Biso      1.000     H          0.20011400000000001           
         H34       1.0000    0.24780   0.30490   0.91680   Biso      1.000     H          0.187225  
         H35       1.0000    0.28730   0.40430   0.94300   Biso      1.000     H          0.19447899999999999           
         H36       1.0000    0.06360   0.44220   0.67880   Biso      1.000     H          0.11591900000000001           
         H37       1.0000    0.23650   0.16200   0.59040   Biso      1.000     H          0.115577  
         H38       1.0000    0.12310   0.25630   0.66880   Biso      1.000     H          0.12493399999999999           
         H39       1.0000    0.36200   0.40150   0.77030   Biso      1.000     H          0.133778  
         H40       1.0000    0.47840   0.30830   0.68860   Biso      1.000     H          0.121956  
         H41       1.0000    0.19190   0.63940   0.00420   Biso      1.000     H          0.20011400000000001           
         H42       1.0000    0.24780   0.69510   0.08320   Biso      1.000     H          0.187225  
         H43       1.0000    0.28730   0.59570   0.05700   Biso      1.000     H          0.19447899999999999           
         H44       1.0000    0.06360   0.55780   0.32120   Biso      1.000     H          0.11591900000000001           
         H45       1.0000    0.23650   0.83800   0.40960   Biso      1.000     H          0.115577  
         H46       1.0000    0.12310   0.74370   0.33120   Biso      1.000     H          0.12493399999999999           
         H47       1.0000    0.74780   0.41680   0.80490   Biso      1.000     H          0.187225  
         H48       1.0000    0.36200   0.59850   0.22970   Biso      1.000     H          0.133778  
         H49       1.0000    0.69190   0.86060   0.50420   Biso      1.000     H          0.20011400000000001           
         H50       1.0000    0.74780   0.80490   0.58320   Biso      1.000     H          0.187225  
         H51       1.0000    0.78730   0.90430   0.55700   Biso      1.000     H          0.19447899999999999           
         H52       1.0000    0.97840   0.81140   0.19170   Biso      1.000     H          0.121956  
         H53       1.0000    0.86200   0.72970   0.09850   Biso      1.000     H          0.133778  
         H54       1.0000    0.62310   0.83120   0.24370   Biso      1.000     H          0.12493399999999999           
         H55       1.0000    0.56360   0.82120   0.05780   Biso      1.000     H          0.11591900000000001           
         H56       1.0000    0.78730   0.55700   0.09570   Biso      1.000     H          0.19447899999999999           
         H57       1.0000    0.74780   0.58320   0.19510   Biso      1.000     H          0.187225  
         H58       1.0000    0.69190   0.50420   0.13940   Biso      1.000     H          0.20011400000000001           
         H59       1.0000    0.97840   0.18860   0.80830   Biso      1.000     H          0.121956  
         H60       1.0000    0.86200   0.27030   0.90150   Biso      1.000     H          0.133778  
         H61       1.0000    0.73650   0.09040   0.66200   Biso      1.000     H          0.115577  
         H62       1.0000    0.56360   0.17880   0.94220   Biso      1.000     H          0.11591900000000001           
         H63       1.0000    0.47840   0.69170   0.31140   Biso      1.000     H          0.121956  
         H64       1.0000    0.73650   0.90960   0.33800   Biso      1.000     H          0.115577  
         N1        1.0000    0.02400   0.19520   0.48020   Biso      1.000     N          -0.186773           
         N2        1.0000    0.16050   0.22250   0.39170   Biso      1.000     N          -0.082327           
         N3        1.0000    0.57400   0.38620   0.95830   Biso      1.000     N          -0.267612           
         N4        1.0000    0.52400   0.01980   0.30480   Biso      1.000     N          -0.186773           
         N5        1.0000    0.57400   0.04170   0.38620   Biso      1.000     N          -0.267608           
         N6        1.0000    0.66050   0.10830   0.27750   Biso      1.000     N          -0.082326           
         N7        1.0000    0.52400   0.98020   0.69520   Biso      1.000     N          -0.186773           
         N8        1.0000    0.57400   0.95830   0.61380   Biso      1.000     N          -0.267608           
         N9        1.0000    0.66050   0.89170   0.72250   Biso      1.000     N          -0.082326           
         N10       1.0000    0.02400   0.51980   0.19520   Biso      1.000     N          -0.186773           
         N11       1.0000    0.07400   0.54170   0.11380   Biso      1.000     N          -0.267608           
         N12       1.0000    0.07400   0.11380   0.45830   Biso      1.000     N          -0.267608           
         N13       1.0000    0.16050   0.60830   0.22250   Biso      1.000     N          -0.082327           
         N14       1.0000    0.16050   0.39170   0.77750   Biso      1.000     N          -0.082327           
         N15       1.0000    0.52400   0.30480   0.98020   Biso      1.000     N          -0.18676900000000002          
         N16       1.0000    0.66050   0.27750   0.89170   Biso      1.000     N          -0.082327           
         N17       1.0000    0.66050   0.72250   0.10830   Biso      1.000     N          -0.082327           
         N18       1.0000    0.57400   0.61380   0.04170   Biso      1.000     N          -0.267612           
         N19       1.0000    0.52400   0.69520   0.01980   Biso      1.000     N          -0.18676900000000002          
         N20       1.0000    0.16050   0.77750   0.60830   Biso      1.000     N          -0.082326           
         N21       1.0000    0.07400   0.88620   0.54170   Biso      1.000     N          -0.267612           
         N22       1.0000    0.02400   0.80480   0.51980   Biso      1.000     N          -0.18676900000000002          
         N23       1.0000    0.07400   0.45830   0.88620   Biso      1.000     N          -0.267612           
         N24       1.0000    0.02400   0.48020   0.80480   Biso      1.000     N          -0.18676900000000002          
         O1        1.0000    0.53920   0.18190   0.58000   Biso      1.000     O          -0.564968           
         O2        1.0000    0.03920   0.92000   0.31810   Biso      1.000     O          -0.564968           
         O3        1.0000    0.90270   0.04010   0.59570   Biso      1.000     O          -0.561316           
         O4        1.0000    0.40270   0.45990   0.09570   Biso      1.000     O          -0.561316           
         O5        1.0000    0.53920   0.42000   0.18190   Biso      1.000     O          -0.564968           
         O6        1.0000    0.90270   0.95990   0.40430   Biso      1.000     O          -0.561316           
         O7        1.0000    0.03920   0.08000   0.68190   Biso      1.000     O          -0.564968           
         O8        1.0000    0.53920   0.58000   0.81810   Biso      1.000     O          -0.564968           
         O9        1.0000    0.40270   0.54010   0.90430   Biso      1.000     O          -0.561316           
         O10       1.0000    0.40270   0.09570   0.54010   Biso      1.000     O          -0.561316           
         O11       1.0000    0.53920   0.81810   0.42000   Biso      1.000     O          -0.564968           
         O12       1.0000    0.40270   0.90430   0.45990   Biso      1.000     O          -0.561316           
         O13       1.0000    0.03920   0.68190   0.92000   Biso      1.000     O          -0.564968           
         O14       1.0000    0.90270   0.59570   0.95990   Biso      1.000     O          -0.561316           
         O15       1.0000    0.03920   0.31810   0.08000   Biso      1.000     O          -0.564968           
         O16       1.0000    0.90270   0.40430   0.04010   Biso      1.000     O          -0.561316           
         Zn1       1.0000    0.00000   0.00000   0.50000   Biso      1.000     Zn          0.786589  
         Zn2       1.0000    0.50000   0.00000   0.50000   Biso      1.000     Zn          0.786589  
         Zn3       1.0000    0.50000   0.50000   0.00000   Biso      1.000     Zn          0.78659   
         Zn4       1.0000    0.00000   0.50000   0.00000   Biso      1.000     Zn          0.786589 