
##########################################################################
#               Crystallographic Information Format file
#               Produced by PyCifRW module
#
#  This is a CIF file.  CIF has been adopted by the International
#  Union of Crystallography as the standard for data archiving and
#  transmission.
#
#  For information on this file format, follow the CIF links at
#  http://www.iucr.org
##########################################################################

data_image0

_cell_length_a                          13.2796
_cell_length_b                          14.9992
_cell_length_c                          16.1213
_cell_angle_alpha                       117.723
_cell_angle_beta                        99.1245
_cell_angle_gamma                       90
_symmetry_space_group_name_H-M          'P 1'
_symmetry_int_tables_number             1
loop_
  _symmetry_equiv_pos_as_xyz
         'x, y, z' 
loop_
  _atom_site_label
  _atom_site_occupancy
  _atom_site_fract_x
  _atom_site_fract_y
  _atom_site_fract_z
  _atom_site_thermal_displace_type
  _atom_site_B_iso_or_equiv
  _atom_site_type_symbol
  _atom_site_charge
         C1        1.0000    0.32680   0.70300   0.28960   Biso      1.000     C          0.22644   
         C2        1.0000    0.88100   0.36740   0.06980   Biso      1.000     C          0.079846  
         C3        1.0000    0.90710   0.40530   0.01080   Biso      1.000     C          -0.120737           
         C4        1.0000    0.93710   0.33940   0.92540   Biso      1.000     C          -0.098958           
         C5        1.0000    0.94240   0.23900   0.89900   Biso      1.000     C          -0.012641           
         C6        1.0000    0.98060   0.16820   0.81040   Biso      1.000     C          0.587377  
         C7        1.0000    0.42000   0.66260   0.50280   Biso      1.000     C          0.645565  
         C8        1.0000    0.30020   0.77880   0.47660   Biso      1.000     C          -0.12254  
         C9        1.0000    0.36370   0.70290   0.44000   Biso      1.000     C          -0.014573           
         C10       1.0000    0.37570   0.66290   0.34580   Biso      1.000     C          -0.182519           
         C11       1.0000    0.25910   0.77660   0.32560   Biso      1.000     C          -0.185216           
         C12       1.0000    0.24530   0.81570   0.42020   Biso      1.000     C          -0.012209           
         C13       1.0000    0.17230   0.89570   0.45800   Biso      1.000     C          0.670846  
         C14       1.0000    0.35310   0.72690   0.16240   Biso      1.000     C          0.059254  
         C15       1.0000    0.41030   0.75530   0.95680   Biso      1.000     C          -0.111777           
         C16       1.0000    0.38170   0.77480   0.04220   Biso      1.000     C          -0.144528           
         C17       1.0000    0.38100   0.70240   0.06980   Biso      1.000     C          0.080791  
         C18       1.0000    0.40710   0.60550   0.01080   Biso      1.000     C          -0.12193  
         C19       1.0000    0.43710   0.58600   0.92540   Biso      1.000     C          -0.099612           
         C20       1.0000    0.44240   0.66000   0.89900   Biso      1.000     C          -0.011201           
         C21       1.0000    0.48060   0.64220   0.81040   Biso      1.000     C          0.587612  
         C22       1.0000    0.08000   0.15980   0.49720   Biso      1.000     C          0.643724  
         C23       1.0000    0.88170   0.26740   0.04220   Biso      1.000     C          -0.146326           
         C24       1.0000    0.19980   0.30220   0.52340   Biso      1.000     C          -0.12317  
         C25       1.0000    0.91030   0.20150   0.95680   Biso      1.000     C          -0.108378           
         C26       1.0000    0.67230   0.56230   0.45800   Biso      1.000     C          0.669773  
         C27       1.0000    0.63630   0.29710   0.56000   Biso      1.000     C          -0.014573           
         C28       1.0000    0.62430   0.33710   0.65420   Biso      1.000     C          -0.182519           
         C29       1.0000    0.67320   0.29700   0.71040   Biso      1.000     C          0.22644   
         C30       1.0000    0.74090   0.22340   0.67440   Biso      1.000     C          -0.185216           
         C31       1.0000    0.75470   0.18430   0.57980   Biso      1.000     C          -0.012209           
         C32       1.0000    0.82770   0.10430   0.54200   Biso      1.000     C          0.670845  
         C33       1.0000    0.64690   0.27310   0.83760   Biso      1.000     C          0.059253  
         C34       1.0000    0.58970   0.24470   0.04320   Biso      1.000     C          -0.111777           
         C35       1.0000    0.61830   0.22520   0.95780   Biso      1.000     C          -0.144528           
         C36       1.0000    0.61900   0.29760   0.93020   Biso      1.000     C          0.080791  
         C37       1.0000    0.59290   0.39450   0.98920   Biso      1.000     C          -0.12193  
         C38       1.0000    0.56290   0.41400   0.07460   Biso      1.000     C          -0.099612           
         C39       1.0000    0.55760   0.34000   0.10100   Biso      1.000     C          -0.011201           
         C40       1.0000    0.51940   0.35780   0.18960   Biso      1.000     C          0.587612  
         C41       1.0000    0.92000   0.84020   0.50280   Biso      1.000     C          0.643724  
         C42       1.0000    0.80020   0.69780   0.47660   Biso      1.000     C          -0.12317  
         C43       1.0000    0.86370   0.73710   0.44000   Biso      1.000     C          -0.012427           
         C44       1.0000    0.87570   0.68290   0.34580   Biso      1.000     C          -0.184715           
         C45       1.0000    0.82680   0.58660   0.28960   Biso      1.000     C          0.226935  
         C46       1.0000    0.75910   0.54900   0.32560   Biso      1.000     C          -0.184855           
         C47       1.0000    0.74530   0.60450   0.42020   Biso      1.000     C          -0.01173  
         C48       1.0000    0.85310   0.43550   0.16240   Biso      1.000     C          0.060049  
         C49       1.0000    0.69980   0.22120   0.52340   Biso      1.000     C          -0.122541           
         C50       1.0000    0.13630   0.26290   0.56000   Biso      1.000     C          -0.012427           
         C51       1.0000    0.17320   0.41340   0.71040   Biso      1.000     C          0.226935  
         C52       1.0000    0.12430   0.31710   0.65420   Biso      1.000     C          -0.184715           
         C53       1.0000    0.01940   0.83180   0.18960   Biso      1.000     C          0.587378  
         C54       1.0000    0.05760   0.76100   0.10100   Biso      1.000     C          -0.01265  
         C55       1.0000    0.06290   0.66060   0.07460   Biso      1.000     C          -0.098948           
         C56       1.0000    0.09290   0.59470   0.98920   Biso      1.000     C          -0.120738           
         C57       1.0000    0.11900   0.63260   0.93020   Biso      1.000     C          0.079846  
         C58       1.0000    0.58000   0.33740   0.49720   Biso      1.000     C          0.645565  
         C59       1.0000    0.08970   0.79850   0.04320   Biso      1.000     C          -0.108378           
         C60       1.0000    0.24090   0.45100   0.67440   Biso      1.000     C          -0.184855           
         C61       1.0000    0.25470   0.39550   0.57980   Biso      1.000     C          -0.011729           
         C62       1.0000    0.11830   0.73260   0.95780   Biso      1.000     C          -0.146325           
         C63       1.0000    0.14690   0.56450   0.83760   Biso      1.000     C          0.060049  
         C64       1.0000    0.32770   0.43770   0.54200   Biso      1.000     C          0.669773  
         H1        1.0000    0.04620   0.63590   0.11440   Biso      1.000     H          0.12084   
         H2        1.0000    0.22270   0.80010   0.28660   Biso      1.000     H          0.132348  
         H3        1.0000    0.30600   0.77800   0.17600   Biso      1.000     H          0.071595  
         H4        1.0000    0.40840   0.80510   0.93780   Biso      1.000     H          0.123597  
         H5        1.0000    0.36260   0.83860   0.08100   Biso      1.000     H          0.114414  
         H6        1.0000    0.40450   0.55480   0.02840   Biso      1.000     H          0.120881  
         H7        1.0000    0.45380   0.52150   0.88560   Biso      1.000     H          0.121528  
         H8        1.0000    0.41620   0.60950   0.32040   Biso      1.000     H          0.138174  
         H9        1.0000    0.27730   0.51350   0.71340   Biso      1.000     H          0.131727  
         H10       1.0000    0.19400   0.60200   0.82400   Biso      1.000     H          0.071702  
         H11       1.0000    0.09160   0.86730   0.06220   Biso      1.000     H          0.122182  
         H12       1.0000    0.13740   0.75760   0.91900   Biso      1.000     H          0.114932  
         H13       1.0000    0.09550   0.52640   0.97160   Biso      1.000     H          0.120994  
         H14       1.0000    0.20610   0.26560   0.45980   Biso      1.000     H          0.129169  
         H15       1.0000    0.08380   0.28910   0.67960   Biso      1.000     H          0.138752  
         H16       1.0000    0.95380   0.36410   0.88560   Biso      1.000     H          0.120841  
         H17       1.0000    0.90450   0.47360   0.02840   Biso      1.000     H          0.120994  
         H18       1.0000    0.70610   0.19420   0.45980   Biso      1.000     H          0.128869  
         H19       1.0000    0.58380   0.39050   0.67960   Biso      1.000     H          0.138174  
         H20       1.0000    0.77730   0.19990   0.71340   Biso      1.000     H          0.132348  
         H21       1.0000    0.69400   0.22200   0.82400   Biso      1.000     H          0.071595  
         H22       1.0000    0.29390   0.80580   0.54020   Biso      1.000     H          0.128869  
         H23       1.0000    0.63740   0.16140   0.91900   Biso      1.000     H          0.114414  
         H24       1.0000    0.59160   0.19490   0.06220   Biso      1.000     H          0.123597  
         H25       1.0000    0.54620   0.47850   0.11440   Biso      1.000     H          0.121528  
         H26       1.0000    0.79390   0.73440   0.54020   Biso      1.000     H          0.129169  
         H27       1.0000    0.91620   0.71090   0.32040   Biso      1.000     H          0.138752  
         H28       1.0000    0.72270   0.48650   0.28660   Biso      1.000     H          0.131727  
         H29       1.0000    0.90840   0.13270   0.93780   Biso      1.000     H          0.122182  
         H30       1.0000    0.86260   0.24240   0.08100   Biso      1.000     H          0.114932  
         H31       1.0000    0.59550   0.44520   0.97160   Biso      1.000     H          0.120881  
         H32       1.0000    0.80600   0.39800   0.17600   Biso      1.000     H          0.071702  
         N1        1.0000    0.15270   0.47070   0.80500   Biso      1.000     N          -0.280711           
         N2        1.0000    0.34730   0.66570   0.19500   Biso      1.000     N          -0.279849           
         N3        1.0000    0.84730   0.52930   0.19500   Biso      1.000     N          -0.280711           
         N4        1.0000    0.65270   0.33430   0.80500   Biso      1.000     N          -0.279849           
         Nd1       1.0000    0.95766   0.96710   0.36284   Biso      1.000     Nd          2.071238  
         Nd2       1.0000    0.45766   0.39574   0.36284   Biso      1.000     Nd          2.0705    
         Nd3       1.0000    0.04234   0.03290   0.63716   Biso      1.000     Nd          2.071238  
         Nd4       1.0000    0.54234   0.60426   0.63716   Biso      1.000     Nd          2.0705    
         O1        1.0000    0.83650   0.07195   0.45570   Biso      1.000     O          -0.711751           
         O2        1.0000    0.87220   0.07419   0.59758   Biso      1.000     O          -0.632574           
         O3        1.0000    0.53290   0.29405   0.21790   Biso      1.000     O          -0.642372           
         O4        1.0000    0.47530   0.43665   0.23190   Biso      1.000     O          -0.660609           
         O5        1.0000    0.95040   0.89037   0.46454   Biso      1.000     O          -0.767739           
         O6        1.0000    0.93380   0.87617   0.59074   Biso      1.000     O          -0.590862           
         O7        1.0000    0.66350   0.61625   0.54430   Biso      1.000     O          -0.711173           
         O8        1.0000    0.62780   0.47661   0.40242   Biso      1.000     O          -0.63175  
         O9        1.0000    0.96710   0.07615   0.78210   Biso      1.000     O          -0.642899           
         O10       1.0000    0.02470   0.20475   0.76810   Biso      1.000     O          -0.659824           
         O11       1.0000    0.45040   0.57417   0.46454   Biso      1.000     O          -0.768185           
         O12       1.0000    0.43380   0.71457   0.59074   Biso      1.000     O          -0.591316           
         O13       1.0000    0.16350   0.92805   0.54430   Biso      1.000     O          -0.711751           
         O14       1.0000    0.12780   0.92581   0.40242   Biso      1.000     O          -0.632574           
         O15       1.0000    0.46710   0.70595   0.78210   Biso      1.000     O          -0.642372           
         O16       1.0000    0.52470   0.56335   0.76810   Biso      1.000     O          -0.660609           
         O17       1.0000    0.04960   0.10963   0.53546   Biso      1.000     O          -0.767739           
         O18       1.0000    0.06620   0.12383   0.40926   Biso      1.000     O          -0.590862           
         O19       1.0000    0.33650   0.38375   0.45570   Biso      1.000     O          -0.711173           
         O20       1.0000    0.37220   0.52339   0.59758   Biso      1.000     O          -0.63175  
         O21       1.0000    0.03290   0.92385   0.21790   Biso      1.000     O          -0.642899           
         O22       1.0000    0.97530   0.79525   0.23190   Biso      1.000     O          -0.659825           
         O23       1.0000    0.56620   0.28543   0.40926   Biso      1.000     O          -0.591316           
         O24       1.0000    0.54960   0.42583   0.53546   Biso      1.000     O          -0.768185 