
##########################################################################
#               Crystallographic Information Format file
#               Produced by PyCifRW module
#
#  This is a CIF file.  CIF has been adopted by the International
#  Union of Crystallography as the standard for data archiving and
#  transmission.
#
#  For information on this file format, follow the CIF links at
#  http://www.iucr.org
##########################################################################

data_image0

_cell_length_a                          13.5868
_cell_length_b                          15.1581
_cell_length_c                          16.0184
_cell_angle_alpha                       118.239
_cell_angle_beta                        98.812
_cell_angle_gamma                       90
_symmetry_space_group_name_H-M          'P 1'
_symmetry_int_tables_number             1
loop_
  _symmetry_equiv_pos_as_xyz
         'x, y, z' 
loop_
  _atom_site_label
  _atom_site_occupancy
  _atom_site_fract_x
  _atom_site_fract_y
  _atom_site_fract_z
  _atom_site_thermal_displace_type
  _atom_site_B_iso_or_equiv
  _atom_site_type_symbol
  _atom_site_charge
         C1        1.0000    0.81700   0.09878   0.29096   Biso      1.000     C          0.228409  
         C2        1.0000    0.37100   0.19740   0.07400   Biso      1.000     C          0.077396  
         C3        1.0000    0.37110   0.27600   0.04940   Biso      1.000     C          -0.150044           
         C4        1.0000    0.39950   0.25950   0.96440   Biso      1.000     C          -0.11245  
         C5        1.0000    0.43230   0.16670   0.90460   Biso      1.000     C          -0.009134999999999999         
         C6        1.0000    0.47210   0.15130   0.81620   Biso      1.000     C          0.5826939999999999  
         C7        1.0000    0.65720   0.08080   0.45620   Biso      1.000     C          0.667388  
         C8        1.0000    0.78310   0.21498   0.47836   Biso      1.000     C          -0.125134           
         C9        1.0000    0.73080   0.12100   0.41980   Biso      1.000     C          -0.013133           
         C10       1.0000    0.74740   0.06380   0.32540   Biso      1.000     C          -0.181033           
         C11       1.0000    0.86590   0.19359   0.34758   Biso      1.000     C          -0.18325999999999998          
         C12       1.0000    0.85020   0.25149   0.44238   Biso      1.000     C          -0.017312           
         C13       1.0000    0.90570   0.35220   0.50500   Biso      1.000     C          0.643519  
         C14       1.0000    0.84350   0.94490   0.16700   Biso      1.000     C          0.056629  
         C15       1.0000    0.93370   0.83890   0.92980   Biso      1.000     C          -0.100606           
         C16       1.0000    0.90080   0.90680   0.01300   Biso      1.000     C          -0.115348           
         C17       1.0000    0.87100   0.87660   0.07400   Biso      1.000     C          0.077391  
         C18       1.0000    0.87110   0.77340   0.04940   Biso      1.000     C          -0.149999           
         C19       1.0000    0.89950   0.70490   0.96440   Biso      1.000     C          -0.11252899999999999          
         C20       1.0000    0.93230   0.73790   0.90460   Biso      1.000     C          -0.009154           
         C21       1.0000    0.97210   0.66490   0.81620   Biso      1.000     C          0.5827680000000001  
         C22       1.0000    0.84280   0.62460   0.54380   Biso      1.000     C          0.66737   
         C23       1.0000    0.40080   0.10620   0.01300   Biso      1.000     C          -0.115344           
         C24       1.0000    0.71690   0.73662   0.52164   Biso      1.000     C          -0.125125           
         C25       1.0000    0.43370   0.09090   0.92980   Biso      1.000     C          -0.100624           
         C26       1.0000    0.40570   0.15280   0.50500   Biso      1.000     C          0.643492  
         C27       1.0000    0.26920   0.87900   0.58020   Biso      1.000     C          -0.013134           
         C28       1.0000    0.25260   0.93620   0.67460   Biso      1.000     C          -0.181033           
         C29       1.0000    0.18300   0.90122   0.70904   Biso      1.000     C          0.228409  
         C30       1.0000    0.13410   0.80641   0.65242   Biso      1.000     C          -0.18325999999999998          
         C31       1.0000    0.14980   0.74851   0.55762   Biso      1.000     C          -0.017312           
         C32       1.0000    0.09430   0.64780   0.49500   Biso      1.000     C          0.643519  
         C33       1.0000    0.15650   0.05510   0.83300   Biso      1.000     C          0.056629  
         C34       1.0000    0.06630   0.16110   0.07020   Biso      1.000     C          -0.100606           
         C35       1.0000    0.09920   0.09320   0.98700   Biso      1.000     C          -0.115348           
         C36       1.0000    0.12900   0.12340   0.92600   Biso      1.000     C          0.077391  
         C37       1.0000    0.12890   0.22660   0.95060   Biso      1.000     C          -0.149999           
         C38       1.0000    0.10050   0.29510   0.03560   Biso      1.000     C          -0.11252899999999999          
         C39       1.0000    0.06770   0.26210   0.09540   Biso      1.000     C          -0.009154           
         C40       1.0000    0.02790   0.33510   0.18380   Biso      1.000     C          0.5827680000000001  
         C41       1.0000    0.15720   0.37540   0.45620   Biso      1.000     C          0.66737   
         C42       1.0000    0.28310   0.26338   0.47836   Biso      1.000     C          -0.125125           
         C43       1.0000    0.23080   0.29880   0.41980   Biso      1.000     C          -0.01314  
         C44       1.0000    0.24740   0.26160   0.32540   Biso      1.000     C          -0.181043           
         C45       1.0000    0.31700   0.19218   0.29096   Biso      1.000     C          0.22842300000000001           
         C46       1.0000    0.36590   0.15399   0.34758   Biso      1.000     C          -0.183256           
         C47       1.0000    0.35020   0.19089   0.44238   Biso      1.000     C          -0.017325           
         C48       1.0000    0.34350   0.22210   0.16700   Biso      1.000     C          0.056634000000000004          
         C49       1.0000    0.21690   0.78502   0.52164   Biso      1.000     C          -0.125134           
         C50       1.0000    0.76920   0.70120   0.58020   Biso      1.000     C          -0.01314  
         C51       1.0000    0.68300   0.80782   0.70904   Biso      1.000     C          0.22842300000000001           
         C52       1.0000    0.75260   0.73840   0.67460   Biso      1.000     C          -0.181043           
         C53       1.0000    0.52790   0.84870   0.18380   Biso      1.000     C          0.5826939999999999  
         C54       1.0000    0.56770   0.83330   0.09540   Biso      1.000     C          -0.009134999999999999         
         C55       1.0000    0.60050   0.74050   0.03560   Biso      1.000     C          -0.112453           
         C56       1.0000    0.62890   0.72400   0.95060   Biso      1.000     C          -0.150042           
         C57       1.0000    0.62900   0.80260   0.92600   Biso      1.000     C          0.077395  
         C58       1.0000    0.34280   0.91920   0.54380   Biso      1.000     C          0.667388  
         C59       1.0000    0.56630   0.90910   0.07020   Biso      1.000     C          -0.100624           
         C60       1.0000    0.63410   0.84601   0.65242   Biso      1.000     C          -0.183256           
         C61       1.0000    0.64980   0.80911   0.55762   Biso      1.000     C          -0.017325           
         C62       1.0000    0.59920   0.89380   0.98700   Biso      1.000     C          -0.115344           
         C63       1.0000    0.65650   0.77790   0.83300   Biso      1.000     C          0.056634000000000004          
         C64       1.0000    0.59430   0.84720   0.49500   Biso      1.000     C          0.643492  
         H1        1.0000    0.60310   0.69010   0.05300   Biso      1.000     H          0.124117  
         H2        1.0000    0.71150   0.00190   0.28540   Biso      1.000     H          0.13235   
         H3        1.0000    0.90900   0.21880   0.32280   Biso      1.000     H          0.13638599999999998           
         H4        1.0000    0.95680   0.86110   0.89080   Biso      1.000     H          0.125033  
         H5        1.0000    0.89890   0.97370   0.02740   Biso      1.000     H          0.119968  
         H6        1.0000    0.85190   0.75200   0.09060   Biso      1.000     H          0.122932  
         H7        1.0000    0.89690   0.63710   0.94700   Biso      1.000     H          0.124161  
         H8        1.0000    0.77310   0.25320   0.54140   Biso      1.000     H          0.132925  
         H9        1.0000    0.78850   0.71650   0.71460   Biso      1.000     H          0.13235999999999998           
         H10       1.0000    0.59100   0.89600   0.67720   Biso      1.000     H          0.136377  
         H11       1.0000    0.54320   0.97030   0.10920   Biso      1.000     H          0.125033  
         H12       1.0000    0.60110   0.94630   0.97260   Biso      1.000     H          0.11997100000000001           
         H13       1.0000    0.64810   0.66140   0.90940   Biso      1.000     H          0.12293399999999999           
         H14       1.0000    0.71000   0.72900   0.81600   Biso      1.000     H          0.074732  
         H15       1.0000    0.72690   0.71180   0.45860   Biso      1.000     H          0.132929  
         H16       1.0000    0.39690   0.30990   0.94700   Biso      1.000     H          0.124117  
         H17       1.0000    0.35190   0.33860   0.09060   Biso      1.000     H          0.12293499999999999           
         H18       1.0000    0.21000   0.08700   0.81600   Biso      1.000     H          0.07473400000000001           
         H19       1.0000    0.22690   0.74680   0.45860   Biso      1.000     H          0.132925  
         H20       1.0000    0.28850   0.99810   0.71460   Biso      1.000     H          0.13235   
         H21       1.0000    0.09100   0.78120   0.67720   Biso      1.000     H          0.13638599999999998           
         H22       1.0000    0.79000   0.91300   0.18400   Biso      1.000     H          0.07473400000000001           
         H23       1.0000    0.10110   0.02630   0.97260   Biso      1.000     H          0.119968  
         H24       1.0000    0.04320   0.13890   0.10920   Biso      1.000     H          0.125033  
         H25       1.0000    0.10310   0.36290   0.05300   Biso      1.000     H          0.124161  
         H26       1.0000    0.29000   0.27100   0.18400   Biso      1.000     H          0.074732  
         H27       1.0000    0.27310   0.28820   0.54140   Biso      1.000     H          0.132929  
         H28       1.0000    0.21150   0.28350   0.28540   Biso      1.000     H          0.13235999999999998           
         H29       1.0000    0.45680   0.02970   0.89080   Biso      1.000     H          0.125033  
         H30       1.0000    0.39890   0.05370   0.02740   Biso      1.000     H          0.11997100000000001           
         H31       1.0000    0.14810   0.24800   0.90940   Biso      1.000     H          0.122932  
         H32       1.0000    0.40900   0.10400   0.32280   Biso      1.000     H          0.136377  
         N1        1.0000    0.65830   0.84196   0.80312   Biso      1.000     N          -0.285767           
         N2        1.0000    0.84170   0.03884   0.19688   Biso      1.000     N          -0.285763           
         N3        1.0000    0.34170   0.15804   0.19688   Biso      1.000     N          -0.285767           
         N4        1.0000    0.15830   0.96116   0.80312   Biso      1.000     N          -0.285763           
         Nd1       1.0000    0.46126   0.89373   0.36102   Biso      1.000     Nd          2.074723  
         Nd2       1.0000    0.96126   0.46729   0.36102   Biso      1.000     Nd          2.074733  
         Nd3       1.0000    0.53874   0.10627   0.63898   Biso      1.000     Nd          2.074723  
         Nd4       1.0000    0.03874   0.53271   0.63898   Biso      1.000     Nd          2.074733  
         O1        1.0000    0.06200   0.59944   0.53328   Biso      1.000     O          -0.7686970000000001           
         O2        1.0000    0.07980   0.61279   0.40598   Biso      1.000     O          -0.586842           
         O3        1.0000    0.96910   0.30108   0.21796   Biso      1.000     O          -0.675408           
         O4        1.0000    0.05500   0.42646   0.22192   Biso      1.000     O          -0.633037           
         O5        1.0000    0.14660   0.41077   0.54294   Biso      1.000     O          -0.70162  
         O6        1.0000    0.11290   0.40204   0.39688   Biso      1.000     O          -0.640433           
         O7        1.0000    0.43800   0.06616   0.46672   Biso      1.000     O          -0.768699           
         O8        1.0000    0.42020   0.20681   0.59402   Biso      1.000     O          -0.586811           
         O9        1.0000    0.53090   0.08312   0.78204   Biso      1.000     O          -0.67538  
         O10       1.0000    0.44500   0.20454   0.77808   Biso      1.000     O          -0.632988           
         O11       1.0000    0.64660   0.13217   0.54294   Biso      1.000     O          -0.701633           
         O12       1.0000    0.61290   0.99484   0.39688   Biso      1.000     O          -0.6404380000000001           
         O13       1.0000    0.93800   0.40056   0.46672   Biso      1.000     O          -0.7686970000000001           
         O14       1.0000    0.92020   0.38721   0.59402   Biso      1.000     O          -0.586842           
         O15       1.0000    0.03090   0.69892   0.78204   Biso      1.000     O          -0.675408           
         O16       1.0000    0.94500   0.57354   0.77808   Biso      1.000     O          -0.633037           
         O17       1.0000    0.85340   0.58923   0.45706   Biso      1.000     O          -0.70162  
         O18       1.0000    0.88710   0.59796   0.60312   Biso      1.000     O          -0.640433           
         O19       1.0000    0.56200   0.93384   0.53328   Biso      1.000     O          -0.768699           
         O20       1.0000    0.57980   0.79319   0.40598   Biso      1.000     O          -0.586811           
         O21       1.0000    0.46910   0.91688   0.21796   Biso      1.000     O          -0.67538  
         O22       1.0000    0.55500   0.79546   0.22192   Biso      1.000     O          -0.632988           
         O23       1.0000    0.38710   0.00516   0.60312   Biso      1.000     O          -0.6404380000000001           
         O24       1.0000    0.35340   0.86783   0.45706   Biso      1.000     O          -0.7016319999999999 