
##########################################################################
#               Crystallographic Information Format file
#               Produced by PyCifRW module
#
#  This is a CIF file.  CIF has been adopted by the International
#  Union of Crystallography as the standard for data archiving and
#  transmission.
#
#  For information on this file format, follow the CIF links at
#  http://www.iucr.org
##########################################################################

data_image0

_cell_length_a                          12.3002
_cell_length_b                          14.5232
_cell_length_c                          15.986
_cell_angle_alpha                       117.017
_cell_angle_beta                        104.89
_cell_angle_gamma                       90
_symmetry_space_group_name_H-M          'P 1'
_symmetry_int_tables_number             1
loop_
  _symmetry_equiv_pos_as_xyz
         'x, y, z' 
loop_
  _atom_site_label
  _atom_site_occupancy
  _atom_site_fract_x
  _atom_site_fract_y
  _atom_site_fract_z
  _atom_site_thermal_displace_type
  _atom_site_B_iso_or_equiv
  _atom_site_type_symbol
  _atom_site_charge
         C1        1.0000    0.33680   0.06180   0.28760   Biso      1.000     C          0.22230300000000003           
         C2        1.0000    0.89090   0.22250   0.06840   Biso      1.000     C          0.075896  
         C3        1.0000    0.91180   0.12300   0.01160   Biso      1.000     C          -0.124259           
         C4        1.0000    0.94570   0.10240   0.92820   Biso      1.000     C          -0.100496           
         C5        1.0000    0.95460   0.18040   0.90160   Biso      1.000     C          -0.007418999999999999         
         C6        1.0000    0.99840   0.15520   0.81560   Biso      1.000     C          0.5758939999999999  
         C7        1.0000    0.19440   0.03270   0.46060   Biso      1.000     C          0.665621  
         C8        1.0000    0.32750   0.17570   0.47860   Biso      1.000     C          -0.126125           
         C9        1.0000    0.26690   0.07690   0.42060   Biso      1.000     C          -0.010989           
         C10       1.0000    0.27180   0.01930   0.32420   Biso      1.000     C          -0.18769  
         C11       1.0000    0.39090   0.16400   0.34400   Biso      1.000     C          -0.19298099999999999          
         C12       1.0000    0.38770   0.22060   0.44080   Biso      1.000     C          -0.010886           
         C13       1.0000    0.44960   0.32840   0.50380   Biso      1.000     C          0.634026  
         C14       1.0000    0.36430   0.90920   0.16200   Biso      1.000     C          0.05966799999999999           
         C15       1.0000    0.43090   0.67970   0.95740   Biso      1.000     C          -0.099245           
         C16       1.0000    0.39730   0.73990   0.04060   Biso      1.000     C          -0.156317           
         C17       1.0000    0.39090   0.84590   0.06840   Biso      1.000     C          0.076804  
         C18       1.0000    0.41180   0.88860   0.01160   Biso      1.000     C          -0.125641           
         C19       1.0000    0.44570   0.82580   0.92820   Biso      1.000     C          -0.10022400000000001          
         C20       1.0000    0.45460   0.72120   0.90160   Biso      1.000     C          -0.0074659999999999995        
         C21       1.0000    0.49840   0.66040   0.81560   Biso      1.000     C          0.5771270000000001  
         C22       1.0000    0.30560   0.57210   0.53940   Biso      1.000     C          0.665938  
         C23       1.0000    0.89730   0.30070   0.04060   Biso      1.000     C          -0.157418           
         C24       1.0000    0.17250   0.69710   0.52140   Biso      1.000     C          -0.125755           
         C25       1.0000    0.93090   0.27770   0.95740   Biso      1.000     C          -0.099317           
         C26       1.0000    0.94960   0.17540   0.50380   Biso      1.000     C          0.635077  
         C27       1.0000    0.73310   0.92310   0.57940   Biso      1.000     C          -0.010986           
         C28       1.0000    0.72820   0.98070   0.67580   Biso      1.000     C          -0.187691           
         C29       1.0000    0.66320   0.93820   0.71240   Biso      1.000     C          0.222302  
         C30       1.0000    0.60910   0.83600   0.65600   Biso      1.000     C          -0.19297999999999998          
         C31       1.0000    0.61230   0.77940   0.55920   Biso      1.000     C          -0.010887           
         C32       1.0000    0.55040   0.67160   0.49620   Biso      1.000     C          0.634026  
         C33       1.0000    0.63570   0.09080   0.83800   Biso      1.000     C          0.05966799999999999           
         C34       1.0000    0.56910   0.32030   0.04260   Biso      1.000     C          -0.099245           
         C35       1.0000    0.60270   0.26010   0.95940   Biso      1.000     C          -0.156317           
         C36       1.0000    0.60910   0.15410   0.93160   Biso      1.000     C          0.076804  
         C37       1.0000    0.58820   0.11140   0.98840   Biso      1.000     C          -0.125641           
         C38       1.0000    0.55430   0.17420   0.07180   Biso      1.000     C          -0.10022400000000001          
         C39       1.0000    0.54540   0.27880   0.09840   Biso      1.000     C          -0.0074659999999999995        
         C40       1.0000    0.50160   0.33960   0.18440   Biso      1.000     C          0.5771270000000001  
         C41       1.0000    0.69440   0.42790   0.46060   Biso      1.000     C          0.665938  
         C42       1.0000    0.82750   0.30290   0.47860   Biso      1.000     C          -0.125755           
         C43       1.0000    0.76690   0.34370   0.42060   Biso      1.000     C          -0.010874           
         C44       1.0000    0.77180   0.30490   0.32420   Biso      1.000     C          -0.188091           
         C45       1.0000    0.83680   0.22580   0.28760   Biso      1.000     C          0.223061  
         C46       1.0000    0.89090   0.18000   0.34400   Biso      1.000     C          -0.192187           
         C47       1.0000    0.88770   0.22020   0.44080   Biso      1.000     C          -0.012277           
         C48       1.0000    0.86430   0.25280   0.16200   Biso      1.000     C          0.05899600000000001           
         C49       1.0000    0.67250   0.82430   0.52140   Biso      1.000     C          -0.126127           
         C50       1.0000    0.23310   0.65630   0.57940   Biso      1.000     C          -0.010874           
         C51       1.0000    0.16320   0.77420   0.71240   Biso      1.000     C          0.22305999999999998           
         C52       1.0000    0.22820   0.69510   0.67580   Biso      1.000     C          -0.188089           
         C53       1.0000    0.00160   0.84480   0.18440   Biso      1.000     C          0.5758939999999999  
         C54       1.0000    0.04540   0.81960   0.09840   Biso      1.000     C          -0.007418999999999999         
         C55       1.0000    0.05430   0.89760   0.07180   Biso      1.000     C          -0.100495           
         C56       1.0000    0.08820   0.87700   0.98840   Biso      1.000     C          -0.124261           
         C57       1.0000    0.10910   0.77750   0.93160   Biso      1.000     C          0.07589800000000001           
         C58       1.0000    0.80560   0.96730   0.53940   Biso      1.000     C          0.66562   
         C59       1.0000    0.06910   0.72230   0.04260   Biso      1.000     C          -0.099317           
         C60       1.0000    0.10910   0.82000   0.65600   Biso      1.000     C          -0.192187           
         C61       1.0000    0.11230   0.77980   0.55920   Biso      1.000     C          -0.012277           
         C62       1.0000    0.10270   0.69930   0.95940   Biso      1.000     C          -0.157418           
         C63       1.0000    0.13570   0.74720   0.83800   Biso      1.000     C          0.05899600000000001           
         C64       1.0000    0.05040   0.82460   0.49620   Biso      1.000     C          0.635077  
         H1        1.0000    0.03770   0.96370   0.10960   Biso      1.000     H          0.12411900000000001           
         H2        1.0000    0.23170   0.95260   0.28460   Biso      1.000     H          0.13034400000000002           
         H3        1.0000    0.42890   0.19430   0.31740   Biso      1.000     H          0.139755  
         H4        1.0000    0.43720   0.60980   0.93920   Biso      1.000     H          0.122245  
         H5        1.0000    0.37950   0.71070   0.07740   Biso      1.000     H          0.121306  
         H6        1.0000    0.40360   0.95800   0.02840   Biso      1.000     H          0.12404100000000001           
         H7        1.0000    0.46230   0.85410   0.89040   Biso      1.000     H          0.124161  
         H8        1.0000    0.32800   0.21250   0.54380   Biso      1.000     H          0.129959  
         H9        1.0000    0.26830   0.66800   0.71540   Biso      1.000     H          0.13043   
         H10       1.0000    0.07110   0.87690   0.68260   Biso      1.000     H          0.13948   
         H11       1.0000    0.06280   0.67060   0.06080   Biso      1.000     H          0.12273800000000001           
         H12       1.0000    0.12050   0.63330   0.92260   Biso      1.000     H          0.121858  
         H13       1.0000    0.09640   0.92960   0.97160   Biso      1.000     H          0.123646  
         H14       1.0000    0.11200   0.67600   0.79600   Biso      1.000     H          0.085825  
         H15       1.0000    0.17200   0.66870   0.45620   Biso      1.000     H          0.130127  
         H16       1.0000    0.96230   0.03630   0.89040   Biso      1.000     H          0.12411900000000001           
         H17       1.0000    0.90360   0.07040   0.02840   Biso      1.000     H          0.123646  
         H18       1.0000    0.61200   0.12000   0.79600   Biso      1.000     H          0.08479400000000001           
         H19       1.0000    0.67200   0.78750   0.45620   Biso      1.000     H          0.129959  
         H20       1.0000    0.76830   0.04740   0.71540   Biso      1.000     H          0.13034400000000002           
         H21       1.0000    0.57110   0.80570   0.68260   Biso      1.000     H          0.139755  
         H22       1.0000    0.38800   0.88000   0.20400   Biso      1.000     H          0.08479400000000001           
         H23       1.0000    0.62050   0.28930   0.92260   Biso      1.000     H          0.121306  
         H24       1.0000    0.56280   0.39020   0.06080   Biso      1.000     H          0.12224600000000001           
         H25       1.0000    0.53770   0.14590   0.10960   Biso      1.000     H          0.124161  
         H26       1.0000    0.88800   0.32400   0.20400   Biso      1.000     H          0.085825  
         H27       1.0000    0.82800   0.33130   0.54380   Biso      1.000     H          0.130126  
         H28       1.0000    0.73170   0.33200   0.28460   Biso      1.000     H          0.13043   
         H29       1.0000    0.93720   0.32940   0.93920   Biso      1.000     H          0.12273900000000001           
         H30       1.0000    0.87950   0.36670   0.07740   Biso      1.000     H          0.121858  
         H31       1.0000    0.59640   0.04200   0.97160   Biso      1.000     H          0.12404100000000001           
         H32       1.0000    0.92890   0.12310   0.31740   Biso      1.000     H          0.13948   
         N1        1.0000    0.14900   0.81330   0.80800   Biso      1.000     N          -0.268475           
         N2        1.0000    0.35100   0.00530   0.19200   Biso      1.000     N          -0.267803           
         N3        1.0000    0.85100   0.18670   0.19200   Biso      1.000     N          -0.26847600000000005          
         N4        1.0000    0.64900   0.99470   0.80800   Biso      1.000     N          -0.267803           
         Nd1       1.0000    0.92960   0.89556   0.35592   Biso      1.000     Nd          2.073793  
         Nd2       1.0000    0.42960   0.46036   0.35592   Biso      1.000     Nd          2.0732470000000003  
         Nd3       1.0000    0.07040   0.10444   0.64408   Biso      1.000     Nd          2.0737919999999996  
         Nd4       1.0000    0.57040   0.53964   0.64408   Biso      1.000     Nd          2.073248  
         O1        1.0000    0.53010   0.61780   0.53600   Biso      1.000     O          -0.753386           
         O2        1.0000    0.51760   0.63690   0.40400   Biso      1.000     O          -0.596368           
         O3        1.0000    0.46620   0.29560   0.22600   Biso      1.000     O          -0.652221           
         O4        1.0000    0.49660   0.43730   0.21100   Biso      1.000     O          -0.658813           
         O5        1.0000    0.63290   0.45520   0.40220   Biso      1.000     O          -0.625309           
         O6        1.0000    0.70230   0.46610   0.55120   Biso      1.000     O          -0.714136           
         O7        1.0000    0.96990   0.08180   0.46400   Biso      1.000     O          -0.75395  
         O8        1.0000    0.98240   0.23290   0.59600   Biso      1.000     O          -0.596725           
         O9        1.0000    0.03380   0.06960   0.77400   Biso      1.000     O          -0.651762           
         O10       1.0000    0.00340   0.22630   0.78900   Biso      1.000     O          -0.658353           
         O11       1.0000    0.13290   0.94700   0.40220   Biso      1.000     O          -0.625211           
         O12       1.0000    0.20230   0.08510   0.55120   Biso      1.000     O          -0.71411  
         O13       1.0000    0.46990   0.38220   0.46400   Biso      1.000     O          -0.753386           
         O14       1.0000    0.48240   0.36310   0.59600   Biso      1.000     O          -0.596368           
         O15       1.0000    0.53380   0.70440   0.77400   Biso      1.000     O          -0.652221           
         O16       1.0000    0.50340   0.56270   0.78900   Biso      1.000     O          -0.658813           
         O17       1.0000    0.36710   0.54480   0.59780   Biso      1.000     O          -0.625309           
         O18       1.0000    0.29770   0.53390   0.44880   Biso      1.000     O          -0.714136           
         O19       1.0000    0.03010   0.91820   0.53600   Biso      1.000     O          -0.75395  
         O20       1.0000    0.01760   0.76710   0.40400   Biso      1.000     O          -0.596725           
         O21       1.0000    0.96620   0.93040   0.22600   Biso      1.000     O          -0.651762           
         O22       1.0000    0.99660   0.77370   0.21100   Biso      1.000     O          -0.658353           
         O23       1.0000    0.79770   0.91490   0.44880   Biso      1.000     O          -0.71411  
         O24       1.0000    0.86710   0.05300   0.59780   Biso      1.000     O          -0.625211 