
##########################################################################
#               Crystallographic Information Format file
#               Produced by PyCifRW module
#
#  This is a CIF file.  CIF has been adopted by the International
#  Union of Crystallography as the standard for data archiving and
#  transmission.
#
#  For information on this file format, follow the CIF links at
#  http://www.iucr.org
##########################################################################

data_image0

_cell_length_a                          12.5843
_cell_length_b                          14.118
_cell_length_c                          16.1952
_cell_angle_alpha                       95.1837
_cell_angle_beta                        112.862
_cell_angle_gamma                       90
_symmetry_space_group_name_H-M          'P 1'
_symmetry_int_tables_number             1
loop_
  _symmetry_equiv_pos_as_xyz
         'x, y, z' 
loop_
  _atom_site_label
  _atom_site_occupancy
  _atom_site_fract_x
  _atom_site_fract_y
  _atom_site_fract_z
  _atom_site_thermal_displace_type
  _atom_site_B_iso_or_equiv
  _atom_site_type_symbol
  _atom_site_charge
         C1        1.0000    0.31582   0.76990   0.32204   Biso      1.000     C          -0.186906           
         C2        1.0000    0.63975   0.42670   0.95030   Biso      1.000     C          -0.120886           
         C3        1.0000    0.70260   0.40090   0.03600   Biso      1.000     C          -0.144767           
         C4        1.0000    0.81750   0.37930   0.06400   Biso      1.000     C          0.080314  
         C5        1.0000    0.86870   0.38030   0.00200   Biso      1.000     C          -0.115808           
         C6        1.0000    0.80810   0.40620   0.91680   Biso      1.000     C          -0.10066  
         C7        1.0000    0.69435   0.42990   0.89010   Biso      1.000     C          -0.000986           
         C8        1.0000    0.63116   0.46260   0.79852   Biso      1.000     C          0.560492  
         C9        1.0000    0.35687   0.18710   0.77494   Biso      1.000     C          -2.8000000000000003e-05       
         C10       1.0000    0.42760   0.25990   0.77460   Biso      1.000     C          -0.021911           
         C11       1.0000    0.34570   0.18500   0.64000   Biso      1.000     C          0.196933  
         C12       1.0000    0.43508   0.68250   0.45436   Biso      1.000     C          0.643249  
         C13       1.0000    0.31581   0.81950   0.46762   Biso      1.000     C          -0.120501           
         C14       1.0000    0.35428   0.75940   0.41236   Biso      1.000     C          -0.0013390000000000001        
         C15       1.0000    0.23922   0.84040   0.28384   Biso      1.000     C          0.227937  
         C16       1.0000    0.19460   0.89680   0.33780   Biso      1.000     C          -0.194925           
         C17       1.0000    0.23497   0.88710   0.42954   Biso      1.000     C          -0.005881           
         C18       1.0000    0.19157   0.94850   0.48874   Biso      1.000     C          0.623598  
         C19       1.0000    0.27650   0.86050   0.15780   Biso      1.000     C          0.072825  
         C20       1.0000    0.31055   0.92670   0.95030   Biso      1.000     C          -0.120361           
         C21       1.0000    0.33340   0.90090   0.03600   Biso      1.000     C          -0.14671800000000002          
         C22       1.0000    0.24650   0.87930   0.06400   Biso      1.000     C          0.081151  
         C23       1.0000    0.13330   0.88030   0.00200   Biso      1.000     C          -0.118394           
         C24       1.0000    0.10870   0.90620   0.91680   Biso      1.000     C          -0.098825           
         C25       1.0000    0.19575   0.92990   0.89010   Biso      1.000     C          -0.002198           
         C26       1.0000    0.16736   0.96260   0.79852   Biso      1.000     C          0.561707  
         C27       1.0000    0.58193   0.31290   0.22506   Biso      1.000     C          0.000364  
         C28       1.0000    0.70570   0.31500   0.36000   Biso      1.000     C          0.198193  
         C29       1.0000    0.88130   0.36050   0.15780   Biso      1.000     C          0.07384299999999999           
         C30       1.0000    0.98072   0.81750   0.54564   Biso      1.000     C          0.643925  
         C31       1.0000    0.29717   0.44850   0.48874   Biso      1.000     C          0.622725  
         C32       1.0000    0.14320   0.39680   0.33780   Biso      1.000     C          -0.193243           
         C33       1.0000    0.64313   0.81290   0.22506   Biso      1.000     C          -8e-05    
         C34       1.0000    0.57240   0.74010   0.22540   Biso      1.000     C          -0.02194  
         C35       1.0000    0.65430   0.81500   0.36000   Biso      1.000     C          0.19689500000000001           
         C36       1.0000    0.56492   0.31750   0.54564   Biso      1.000     C          0.643249  
         C37       1.0000    0.68419   0.18050   0.53238   Biso      1.000     C          -0.120501           
         C38       1.0000    0.64572   0.24060   0.58764   Biso      1.000     C          -0.001344           
         C39       1.0000    0.68418   0.23010   0.67796   Biso      1.000     C          -0.186899           
         C40       1.0000    0.76078   0.15960   0.71616   Biso      1.000     C          0.227937  
         C41       1.0000    0.80540   0.10320   0.66220   Biso      1.000     C          -0.194927           
         C42       1.0000    0.76503   0.11290   0.57046   Biso      1.000     C          -0.005879           
         C43       1.0000    0.80843   0.05150   0.51126   Biso      1.000     C          0.623598  
         C44       1.0000    0.72350   0.13950   0.84220   Biso      1.000     C          0.072823  
         C45       1.0000    0.68945   0.07330   0.04970   Biso      1.000     C          -0.12036199999999998          
         C46       1.0000    0.66660   0.09910   0.96400   Biso      1.000     C          -0.14671800000000002          
         C47       1.0000    0.75350   0.12070   0.93600   Biso      1.000     C          0.081152  
         C48       1.0000    0.86670   0.11970   0.99800   Biso      1.000     C          -0.118395           
         C49       1.0000    0.89130   0.09380   0.08320   Biso      1.000     C          -0.098824           
         C50       1.0000    0.80425   0.07010   0.10990   Biso      1.000     C          -0.002198           
         C51       1.0000    0.83264   0.03740   0.20148   Biso      1.000     C          0.561708  
         C52       1.0000    0.41807   0.68710   0.77494   Biso      1.000     C          0.000433  
         C53       1.0000    0.34700   0.75990   0.77460   Biso      1.000     C          -0.020888999999999998         
         C54       1.0000    0.29430   0.68500   0.64000   Biso      1.000     C          0.198256  
         C55       1.0000    0.01928   0.18250   0.45436   Biso      1.000     C          0.643921  
         C56       1.0000    0.15181   0.31950   0.46762   Biso      1.000     C          -0.11993699999999999          
         C57       1.0000    0.05808   0.25940   0.41236   Biso      1.000     C          -0.001935           
         C58       1.0000    0.00622   0.26990   0.32204   Biso      1.000     C          -0.18526199999999998          
         C59       1.0000    0.04462   0.34040   0.28384   Biso      1.000     C          0.22678099999999998           
         C60       1.0000    0.19457   0.38710   0.42954   Biso      1.000     C          -0.006684000000000001         
         C61       1.0000    0.84819   0.68050   0.53238   Biso      1.000     C          -0.11994  
         C62       1.0000    0.65300   0.24010   0.22540   Biso      1.000     C          -0.020929           
         C63       1.0000    0.99378   0.73010   0.67796   Biso      1.000     C          -0.18526800000000002          
         C64       1.0000    0.94192   0.74060   0.58764   Biso      1.000     C          -0.001927           
         C65       1.0000    0.36884   0.53740   0.20148   Biso      1.000     C          0.560493  
         C66       1.0000    0.30565   0.57010   0.10990   Biso      1.000     C          -0.000989           
         C67       1.0000    0.13130   0.61970   0.99800   Biso      1.000     C          -0.11581  
         C68       1.0000    0.18250   0.62070   0.93600   Biso      1.000     C          0.08031100000000001           
         C69       1.0000    0.29740   0.59910   0.96400   Biso      1.000     C          -0.144762           
         C70       1.0000    0.19190   0.59380   0.08320   Biso      1.000     C          -0.100655           
         C71       1.0000    0.11870   0.63950   0.84220   Biso      1.000     C          0.073844  
         C72       1.0000    0.70283   0.55150   0.51126   Biso      1.000     C          0.622726  
         C73       1.0000    0.80543   0.61290   0.57046   Biso      1.000     C          -0.006683           
         C74       1.0000    0.85680   0.60320   0.66220   Biso      1.000     C          -0.193246           
         C75       1.0000    0.95538   0.65960   0.71616   Biso      1.000     C          0.22678299999999998           
         C76       1.0000    0.36025   0.57330   0.04970   Biso      1.000     C          -0.120886           
         H1        1.0000    0.07330   0.86330   0.01840   Biso      1.000     H          0.11850899999999999           
         H2        1.0000    0.34520   0.17130   0.82540   Biso      1.000     H          0.10203200000000001           
         H3        1.0000    0.47200   0.30230   0.82340   Biso      1.000     H          0.114477  
         H4        1.0000    0.32540   0.16810   0.57880   Biso      1.000     H          0.098398  
         H5        1.0000    0.34380   0.81450   0.52920   Biso      1.000     H          0.13151300000000002           
         H6        1.0000    0.34130   0.72930   0.28560   Biso      1.000     H          0.13029100000000002           
         H7        1.0000    0.13840   0.94030   0.31240   Biso      1.000     H          0.142094  
         H8        1.0000    0.37060   0.94160   0.93320   Biso      1.000     H          0.12073699999999998           
         H9        1.0000    0.40970   0.89810   0.07580   Biso      1.000     H          0.111364  
         H10       1.0000    0.03230   0.90760   0.87680   Biso      1.000     H          0.12748099999999998           
         H11       1.0000    0.82600   0.55970   0.68760   Biso      1.000     H          0.141733  
         H12       1.0000    0.51980   0.32870   0.17460   Biso      1.000     H          0.10155700000000001           
         H13       1.0000    0.64860   0.19770   0.17660   Biso      1.000     H          0.11402000000000001           
         H14       1.0000    0.74660   0.33190   0.42120   Biso      1.000     H          0.09788999999999999           
         H15       1.0000    0.81460   0.68550   0.47080   Biso      1.000     H          0.13159500000000002           
         H16       1.0000    0.05570   0.77070   0.71440   Biso      1.000     H          0.130012  
         H17       1.0000    0.43740   0.55840   0.06680   Biso      1.000     H          0.120653  
         H18       1.0000    0.33390   0.60190   0.92420   Biso      1.000     H          0.11012100000000001           
         H19       1.0000    0.05490   0.63670   0.98160   Biso      1.000     H          0.117353  
         H20       1.0000    0.15550   0.59240   0.12320   Biso      1.000     H          0.127672  
         H21       1.0000    0.16100   0.64500   0.80600   Biso      1.000     H          0.087939  
         H22       1.0000    0.35500   0.85500   0.19400   Biso      1.000     H          0.087732  
         H23       1.0000    0.66610   0.39810   0.07580   Biso      1.000     H          0.11012100000000001           
         H24       1.0000    0.94510   0.36330   0.01840   Biso      1.000     H          0.117352  
         H25       1.0000    0.64500   0.14500   0.80600   Biso      1.000     H          0.087733  
         H26       1.0000    0.65480   0.82870   0.17460   Biso      1.000     H          0.102052  
         H27       1.0000    0.52800   0.69770   0.17660   Biso      1.000     H          0.11449200000000001           
         H28       1.0000    0.84450   0.40760   0.87680   Biso      1.000     H          0.127672  
         H29       1.0000    0.65620   0.18550   0.47080   Biso      1.000     H          0.13151300000000002           
         H30       1.0000    0.65870   0.27070   0.71440   Biso      1.000     H          0.13029000000000002           
         H31       1.0000    0.86160   0.05970   0.68760   Biso      1.000     H          0.142095  
         H32       1.0000    0.62940   0.05840   0.06680   Biso      1.000     H          0.12073699999999998           
         H33       1.0000    0.59030   0.10190   0.92420   Biso      1.000     H          0.111365  
         H34       1.0000    0.67460   0.83190   0.42120   Biso      1.000     H          0.098414  
         H35       1.0000    0.96770   0.09240   0.12320   Biso      1.000     H          0.12748099999999998           
         H36       1.0000    0.83900   0.35500   0.19400   Biso      1.000     H          0.08794099999999999           
         H37       1.0000    0.48020   0.67130   0.82540   Biso      1.000     H          0.101537  
         H38       1.0000    0.35140   0.80230   0.82340   Biso      1.000     H          0.114007  
         H39       1.0000    0.25340   0.66810   0.57880   Biso      1.000     H          0.097874  
         H40       1.0000    0.18540   0.31450   0.52920   Biso      1.000     H          0.13159400000000002           
         H41       1.0000    0.94430   0.22930   0.28560   Biso      1.000     H          0.13001300000000002           
         H42       1.0000    0.17400   0.44030   0.31240   Biso      1.000     H          0.141733  
         H43       1.0000    0.56260   0.44160   0.93320   Biso      1.000     H          0.120652  
         H44       1.0000    0.92670   0.13670   0.98160   Biso      1.000     H          0.11851099999999999           
         N1        1.0000    0.41985   0.25800   0.68810   Biso      1.000     N          -0.183819           
         N2        1.0000    0.30572   0.14100   0.69124   Biso      1.000     N          -0.424821           
         N3        1.0000    0.20150   0.85650   0.19220   Biso      1.000     N          -0.256321           
         N4        1.0000    0.73175   0.24200   0.31190   Biso      1.000     N          -0.184307           
         N5        1.0000    0.61448   0.35900   0.30876   Biso      1.000     N          -0.425699           
         N6        1.0000    0.99070   0.35650   0.19220   Biso      1.000     N          -0.25801599999999997          
         N7        1.0000    0.58015   0.74200   0.31190   Biso      1.000     N          -0.183806           
         N8        1.0000    0.69428   0.85900   0.30876   Biso      1.000     N          -0.42479300000000003          
         N9        1.0000    0.79850   0.14350   0.80780   Biso      1.000     N          -0.256322           
         N10       1.0000    0.26825   0.75800   0.68810   Biso      1.000     N          -0.184356           
         N11       1.0000    0.00930   0.64350   0.80780   Biso      1.000     N          -0.258021           
         N12       1.0000    0.38552   0.64100   0.69124   Biso      1.000     N          -0.42573900000000003          
         Nd1       1.0000    0.48712   0.46127   0.37159   Biso      1.000     Nd          2.0167610000000002  
         Nd2       1.0000    0.88447   0.96127   0.37159   Biso      1.000     Nd          2.016489  
         Nd3       1.0000    0.51288   0.53873   0.62841   Biso      1.000     Nd          2.0167490000000003  
         Nd4       1.0000    0.11553   0.03873   0.62841   Biso      1.000     Nd          2.01648   
         O1        1.0000    0.74282   0.03320   0.42964   Biso      1.000     O          -0.576076           
         O2        1.0000    0.90900   0.01910   0.54280   Biso      1.000     O          -0.742534           
         O3        1.0000    0.93588   0.01650   0.24716   Biso      1.000     O          -0.6448689999999999           
         O4        1.0000    0.75400   0.02980   0.23060   Biso      1.000     O          -0.607679           
         O5        1.0000    0.92736   0.13470   0.40392   Biso      1.000     O          -0.598888           
         O6        1.0000    0.07690   0.17010   0.53420   Biso      1.000     O          -0.656251           
         O7        1.0000    0.31318   0.46680   0.57036   Biso      1.000     O          -0.575947           
         O8        1.0000    0.36620   0.48090   0.45720   Biso      1.000     O          -0.742158           
         O9        1.0000    0.68872   0.48350   0.75284   Biso      1.000     O          -0.644258           
         O10       1.0000    0.52340   0.47020   0.76940   Biso      1.000     O          -0.6073390000000001           
         O11       1.0000    0.47656   0.63470   0.40392   Biso      1.000     O          -0.598771           
         O12       1.0000    0.45730   0.67010   0.53420   Biso      1.000     O          -0.6556029999999999           
         O13       1.0000    0.25718   0.96680   0.57036   Biso      1.000     O          -0.576079           
         O14       1.0000    0.09100   0.98090   0.45720   Biso      1.000     O          -0.742536           
         O15       1.0000    0.06412   0.98350   0.75284   Biso      1.000     O          -0.644868           
         O16       1.0000    0.24600   0.97020   0.76940   Biso      1.000     O          -0.607685           
         O17       1.0000    0.07264   0.86530   0.59608   Biso      1.000     O          -0.5989   
         O18       1.0000    0.92310   0.82990   0.46580   Biso      1.000     O          -0.656258           
         O19       1.0000    0.68682   0.53320   0.42964   Biso      1.000     O          -0.575944           
         O20       1.0000    0.63380   0.51910   0.54280   Biso      1.000     O          -0.742156           
         O21       1.0000    0.31128   0.51650   0.24716   Biso      1.000     O          -0.644259           
         O22       1.0000    0.47660   0.52980   0.23060   Biso      1.000     O          -0.607332           
         O23       1.0000    0.54270   0.32990   0.46580   Biso      1.000     O          -0.655608           
         O24       1.0000    0.52344   0.36530   0.59608   Biso      1.000     O          -0.598771 