
##########################################################################
#               Crystallographic Information Format file
#               Produced by PyCifRW module
#
#  This is a CIF file.  CIF has been adopted by the International
#  Union of Crystallography as the standard for data archiving and
#  transmission.
#
#  For information on this file format, follow the CIF links at
#  http://www.iucr.org
##########################################################################

data_image0

_cell_length_a                          12.6284
_cell_length_b                          14.8265
_cell_length_c                          16.1342
_cell_angle_alpha                       117.353
_cell_angle_beta                        101.841
_cell_angle_gamma                       90
_symmetry_space_group_name_H-M          'P 1'
_symmetry_int_tables_number             1
loop_
  _symmetry_equiv_pos_as_xyz
         'x, y, z' 
loop_
  _atom_site_label
  _atom_site_occupancy
  _atom_site_fract_x
  _atom_site_fract_y
  _atom_site_fract_z
  _atom_site_thermal_displace_type
  _atom_site_B_iso_or_equiv
  _atom_site_type_symbol
  _atom_site_charge
         C1        1.0000    0.83060   0.71260   0.28620   Biso      1.000     C          0.22514800000000001           
         C2        1.0000    0.38520   0.35930   0.06780   Biso      1.000     C          0.081295  
         C3        1.0000    0.39110   0.25640   0.04060   Biso      1.000     C          -0.15538  
         C4        1.0000    0.42080   0.19290   0.95620   Biso      1.000     C          -0.10405299999999999          
         C5        1.0000    0.44750   0.23200   0.89900   Biso      1.000     C          -0.009772           
         C6        1.0000    0.48940   0.16510   0.81120   Biso      1.000     C          0.581886  
         C7        1.0000    0.68840   0.91410   0.45840   Biso      1.000     C          0.669746  
         C8        1.0000    0.81440   0.79060   0.47560   Biso      1.000     C          -0.12534800000000001          
         C9        1.0000    0.75740   0.82980   0.41840   Biso      1.000     C          -0.009484999999999999         
         C10       1.0000    0.76700   0.79050   0.32400   Biso      1.000     C          -0.188021           
         C11       1.0000    0.88400   0.67020   0.34240   Biso      1.000     C          -0.188126           
         C12       1.0000    0.87550   0.71030   0.43820   Biso      1.000     C          -0.018018           
         C13       1.0000    0.93560   0.66760   0.50160   Biso      1.000     C          0.6415310000000001  
         C14       1.0000    0.85890   0.73550   0.16060   Biso      1.000     C          0.05654   
         C15       1.0000    0.93930   0.59040   0.92400   Biso      1.000     C          -0.101462           
         C16       1.0000    0.90760   0.61030   0.00820   Biso      1.000     C          -0.122241           
         C17       1.0000    0.88520   0.70850   0.06780   Biso      1.000     C          0.08084   
         C18       1.0000    0.89110   0.78420   0.04060   Biso      1.000     C          -0.154102           
         C19       1.0000    0.92080   0.76330   0.95620   Biso      1.000     C          -0.10544400000000001          
         C20       1.0000    0.94750   0.66700   0.89900   Biso      1.000     C          -0.009581000000000001         
         C21       1.0000    0.98940   0.64610   0.81120   Biso      1.000     C          0.5813520000000001  
         C22       1.0000    0.81160   0.45570   0.54160   Biso      1.000     C          0.668235  
         C23       1.0000    0.40760   0.39790   0.00820   Biso      1.000     C          -0.12180899999999999          
         C24       1.0000    0.68560   0.31500   0.52440   Biso      1.000     C          -0.126307           
         C25       1.0000    0.43930   0.33360   0.92400   Biso      1.000     C          -0.10132999999999999          
         C26       1.0000    0.43560   0.83400   0.50160   Biso      1.000     C          0.6410779999999999  
         C27       1.0000    0.24260   0.17020   0.58160   Biso      1.000     C          -0.009483           
         C28       1.0000    0.23300   0.20950   0.67600   Biso      1.000     C          -0.188021           
         C29       1.0000    0.16940   0.28740   0.71380   Biso      1.000     C          0.22515100000000002           
         C30       1.0000    0.11600   0.32980   0.65760   Biso      1.000     C          -0.188121           
         C31       1.0000    0.12450   0.28970   0.56180   Biso      1.000     C          -0.018026           
         C32       1.0000    0.06440   0.33240   0.49840   Biso      1.000     C          0.6415420000000001  
         C33       1.0000    0.14110   0.26450   0.83940   Biso      1.000     C          0.056539  
         C34       1.0000    0.06070   0.40960   0.07600   Biso      1.000     C          -0.101458           
         C35       1.0000    0.09240   0.38970   0.99180   Biso      1.000     C          -0.12223699999999998          
         C36       1.0000    0.11480   0.29150   0.93220   Biso      1.000     C          0.080844  
         C37       1.0000    0.10890   0.21580   0.95940   Biso      1.000     C          -0.154099           
         C38       1.0000    0.07920   0.23670   0.04380   Biso      1.000     C          -0.10544200000000001          
         C39       1.0000    0.05250   0.33300   0.10100   Biso      1.000     C          -0.009586           
         C40       1.0000    0.01060   0.35390   0.18880   Biso      1.000     C          0.581345  
         C41       1.0000    0.18840   0.54430   0.45840   Biso      1.000     C          0.668241  
         C42       1.0000    0.31440   0.68500   0.47560   Biso      1.000     C          -0.126305           
         C43       1.0000    0.25740   0.58860   0.41840   Biso      1.000     C          -0.008213           
         C44       1.0000    0.26700   0.53350   0.32400   Biso      1.000     C          -0.187625           
         C45       1.0000    0.33060   0.57360   0.28620   Biso      1.000     C          0.22485300000000003           
         C46       1.0000    0.38400   0.67220   0.34240   Biso      1.000     C          -0.186987           
         C47       1.0000    0.37550   0.72790   0.43820   Biso      1.000     C          -0.017731999999999998         
         C48       1.0000    0.35890   0.42510   0.16060   Biso      1.000     C          0.05656   
         C49       1.0000    0.18560   0.20940   0.52440   Biso      1.000     C          -0.125344           
         C50       1.0000    0.74260   0.41140   0.58160   Biso      1.000     C          -0.008211           
         C51       1.0000    0.66940   0.42640   0.71380   Biso      1.000     C          0.22484899999999997           
         C52       1.0000    0.73300   0.46650   0.67600   Biso      1.000     C          -0.18762  
         C53       1.0000    0.51060   0.83490   0.18880   Biso      1.000     C          0.581888  
         C54       1.0000    0.55250   0.76800   0.10100   Biso      1.000     C          -0.009773           
         C55       1.0000    0.57920   0.80710   0.04380   Biso      1.000     C          -0.10405199999999999          
         C56       1.0000    0.60890   0.74360   0.95940   Biso      1.000     C          -0.155379           
         C57       1.0000    0.61480   0.64070   0.93220   Biso      1.000     C          0.08129700000000001           
         C58       1.0000    0.31160   0.08590   0.54160   Biso      1.000     C          0.669745  
         C59       1.0000    0.56070   0.66640   0.07600   Biso      1.000     C          -0.10132999999999999          
         C60       1.0000    0.61600   0.32780   0.65760   Biso      1.000     C          -0.18698900000000002          
         C61       1.0000    0.62450   0.27210   0.56180   Biso      1.000     C          -0.017733000000000002         
         C62       1.0000    0.59240   0.60210   0.99180   Biso      1.000     C          -0.12180999999999999          
         C63       1.0000    0.64110   0.57490   0.83940   Biso      1.000     C          0.056561  
         C64       1.0000    0.56440   0.16600   0.49840   Biso      1.000     C          0.6410779999999999  
         H1        1.0000    0.57730   0.87640   0.06240   Biso      1.000     H          0.12361400000000002           
         H2        1.0000    0.72990   0.81730   0.28580   Biso      1.000     H          0.129404  
         H3        1.0000    0.92490   0.61600   0.31680   Biso      1.000     H          0.140422  
         H4        1.0000    0.95480   0.52520   0.88440   Biso      1.000     H          0.124785  
         H5        1.0000    0.90150   0.55830   0.02460   Biso      1.000     H          0.120629  
         H6        1.0000    0.87510   0.84940   0.07940   Biso      1.000     H          0.11758199999999999           
         H7        1.0000    0.92270   0.81400   0.93760   Biso      1.000     H          0.124107  
         H8        1.0000    0.81140   0.81880   0.53980   Biso      1.000     H          0.12903900000000001           
         H9        1.0000    0.77010   0.53150   0.71420   Biso      1.000     H          0.128734  
         H10       1.0000    0.57510   0.29920   0.68320   Biso      1.000     H          0.139756  
         H11       1.0000    0.54520   0.64080   0.11560   Biso      1.000     H          0.12460999999999998           
         H12       1.0000    0.59850   0.53370   0.97540   Biso      1.000     H          0.120532  
         H13       1.0000    0.62490   0.77000   0.92060   Biso      1.000     H          0.117604  
         H14       1.0000    0.63900   0.60500   0.80200   Biso      1.000     H          0.084399  
         H15       1.0000    0.68860   0.27900   0.46020   Biso      1.000     H          0.129216  
         H16       1.0000    0.42270   0.12360   0.93760   Biso      1.000     H          0.123615  
         H17       1.0000    0.37510   0.23000   0.07940   Biso      1.000     H          0.117603  
         H18       1.0000    0.13900   0.19700   0.80200   Biso      1.000     H          0.08405   
         H19       1.0000    0.18860   0.18120   0.46020   Biso      1.000     H          0.12903900000000001           
         H20       1.0000    0.27010   0.18270   0.71420   Biso      1.000     H          0.129405  
         H21       1.0000    0.07510   0.38400   0.68320   Biso      1.000     H          0.140424  
         H22       1.0000    0.86100   0.80300   0.19800   Biso      1.000     H          0.084049  
         H23       1.0000    0.09850   0.44170   0.97540   Biso      1.000     H          0.12063099999999999           
         H24       1.0000    0.04520   0.47480   0.11560   Biso      1.000     H          0.124787  
         H25       1.0000    0.07730   0.18600   0.06240   Biso      1.000     H          0.124108  
         H26       1.0000    0.36100   0.39500   0.19800   Biso      1.000     H          0.084398  
         H27       1.0000    0.31140   0.72100   0.53980   Biso      1.000     H          0.129217  
         H28       1.0000    0.22990   0.46850   0.28580   Biso      1.000     H          0.128733  
         H29       1.0000    0.45480   0.35920   0.88440   Biso      1.000     H          0.12461099999999999           
         H30       1.0000    0.40150   0.46630   0.02460   Biso      1.000     H          0.120532  
         H31       1.0000    0.12490   0.15060   0.92060   Biso      1.000     H          0.117584  
         H32       1.0000    0.42490   0.70080   0.31680   Biso      1.000     H          0.139757  
         N1        1.0000    0.65230   0.48066   0.80832   Biso      1.000     N          -0.272402           
         N2        1.0000    0.84770   0.67234   0.19168   Biso      1.000     N          -0.272111           
         N3        1.0000    0.34770   0.51934   0.19168   Biso      1.000     N          -0.272401           
         N4        1.0000    0.15230   0.32766   0.80832   Biso      1.000     N          -0.272106           
         Nd1       1.0000    0.44282   0.96487   0.35980   Biso      1.000     Nd          2.076621  
         Nd2       1.0000    0.94282   0.39493   0.35981   Biso      1.000     Nd          2.077163  
         Nd3       1.0000    0.55718   0.03513   0.64020   Biso      1.000     Nd          2.076622  
         Nd4       1.0000    0.05718   0.60506   0.64018   Biso      1.000     Nd          2.07714   
         O1        1.0000    0.03870   0.42251   0.53742   Biso      1.000     O          -0.753057           
         O2        1.0000    0.04140   0.27684   0.40908   Biso      1.000     O          -0.5993569999999999           
         O3        1.0000    0.01500   0.28530   0.21460   Biso      1.000     O          -0.653148           
         O4        1.0000    0.97220   0.43612   0.23124   Biso      1.000     O          -0.649149           
         O5        1.0000    0.13390   0.45951   0.40262   Biso      1.000     O          -0.629748           
         O6        1.0000    0.18750   0.59641   0.54702   Biso      1.000     O          -0.722928           
         O7        1.0000    0.46130   0.88509   0.46258   Biso      1.000     O          -0.752551           
         O8        1.0000    0.45860   0.86776   0.59092   Biso      1.000     O          -0.59922  
         O9        1.0000    0.48500   0.07070   0.78540   Biso      1.000     O          -0.653778           
         O10       1.0000    0.52780   0.20488   0.76876   Biso      1.000     O          -0.649213           
         O11       1.0000    0.63390   0.94311   0.40262   Biso      1.000     O          -0.6297729999999999           
         O12       1.0000    0.68750   0.95061   0.54702   Biso      1.000     O          -0.72387  
         O13       1.0000    0.96130   0.57749   0.46258   Biso      1.000     O          -0.75305  
         O14       1.0000    0.95860   0.72316   0.59092   Biso      1.000     O          -0.599344           
         O15       1.0000    0.98500   0.71470   0.78540   Biso      1.000     O          -0.653149           
         O16       1.0000    0.02780   0.56388   0.76876   Biso      1.000     O          -0.649173           
         O17       1.0000    0.86610   0.54049   0.59738   Biso      1.000     O          -0.629735           
         O18       1.0000    0.81250   0.40359   0.45298   Biso      1.000     O          -0.7229369999999999           
         O19       1.0000    0.53870   0.11491   0.53742   Biso      1.000     O          -0.752552           
         O20       1.0000    0.54140   0.13224   0.40908   Biso      1.000     O          -0.599222           
         O21       1.0000    0.51500   0.92930   0.21460   Biso      1.000     O          -0.65378  
         O22       1.0000    0.47220   0.79512   0.23124   Biso      1.000     O          -0.6492140000000001           
         O23       1.0000    0.31250   0.04939   0.45298   Biso      1.000     O          -0.72387  
         O24       1.0000    0.36610   0.05689   0.59738   Biso      1.000     O          -0.629772 