
##########################################################################
#               Crystallographic Information Format file
#               Produced by PyCifRW module
#
#  This is a CIF file.  CIF has been adopted by the International
#  Union of Crystallography as the standard for data archiving and
#  transmission.
#
#  For information on this file format, follow the CIF links at
#  http://www.iucr.org
##########################################################################

data_image0

_cell_length_a                          13.2474
_cell_length_b                          14.3769
_cell_length_c                          16.1088
_cell_angle_alpha                       116.503
_cell_angle_beta                        99.4948
_cell_angle_gamma                       90
_symmetry_space_group_name_H-M          'P 1'
_symmetry_int_tables_number             1
loop_
  _symmetry_equiv_pos_as_xyz
         'x, y, z' 
loop_
  _atom_site_label
  _atom_site_occupancy
  _atom_site_fract_x
  _atom_site_fract_y
  _atom_site_fract_z
  _atom_site_thermal_displace_type
  _atom_site_B_iso_or_equiv
  _atom_site_type_symbol
  _atom_site_charge
         C1        1.0000    0.83200   0.21520   0.28780   Biso      1.000     C          0.22545500000000002           
         C2        1.0000    0.37640   0.85610   0.06580   Biso      1.000     C          0.082486  
         C3        1.0000    0.38240   0.75060   0.03720   Biso      1.000     C          -0.149009           
         C4        1.0000    0.41200   0.68790   0.95300   Biso      1.000     C          -0.10388  
         C5        1.0000    0.43890   0.72980   0.89580   Biso      1.000     C          -0.012303           
         C6        1.0000    0.47930   0.66320   0.80820   Biso      1.000     C          0.580217  
         C7        1.0000    0.67990   0.41100   0.45760   Biso      1.000     C          0.6730729999999999  
         C8        1.0000    0.81000   0.29100   0.47460   Biso      1.000     C          -0.127132           
         C9        1.0000    0.75380   0.32790   0.41820   Biso      1.000     C          -0.008123           
         C10       1.0000    0.76420   0.28970   0.32460   Biso      1.000     C          -0.189352           
         C11       1.0000    0.88410   0.17300   0.34400   Biso      1.000     C          -0.191722           
         C12       1.0000    0.87480   0.21250   0.43820   Biso      1.000     C          -0.015234000000000001         
         C13       1.0000    0.93350   0.16970   0.49960   Biso      1.000     C          0.6416930000000001  
         C14       1.0000    0.85110   0.23730   0.15820   Biso      1.000     C          0.060079999999999995          
         C15       1.0000    0.93140   0.08840   0.92420   Biso      1.000     C          -0.098932           
         C16       1.0000    0.89970   0.10930   0.00720   Biso      1.000     C          -0.12219100000000001          
         C17       1.0000    0.87640   0.20970   0.06580   Biso      1.000     C          0.08245599999999999           
         C18       1.0000    0.88240   0.28660   0.03720   Biso      1.000     C          -0.14949500000000002          
         C19       1.0000    0.91200   0.26510   0.95300   Biso      1.000     C          -0.103645           
         C20       1.0000    0.93890   0.16600   0.89580   Biso      1.000     C          -0.011665           
         C21       1.0000    0.97930   0.14500   0.80820   Biso      1.000     C          0.581863  
         C22       1.0000    0.82010   0.95340   0.54240   Biso      1.000     C          0.6735760000000001  
         C23       1.0000    0.39970   0.89790   0.00720   Biso      1.000     C          -0.12349600000000001          
         C24       1.0000    0.69000   0.81640   0.52540   Biso      1.000     C          -0.128611           
         C25       1.0000    0.43140   0.83580   0.92420   Biso      1.000     C          -0.097477           
         C26       1.0000    0.43350   0.32990   0.49960   Biso      1.000     C          0.6422640000000001  
         C27       1.0000    0.24620   0.67210   0.58180   Biso      1.000     C          -0.008129           
         C28       1.0000    0.23580   0.71030   0.67540   Biso      1.000     C          -0.189353           
         C29       1.0000    0.16800   0.78480   0.71220   Biso      1.000     C          0.22545700000000002           
         C30       1.0000    0.11590   0.82700   0.65600   Biso      1.000     C          -0.191722           
         C31       1.0000    0.12520   0.78750   0.56180   Biso      1.000     C          -0.015236000000000001         
         C32       1.0000    0.06650   0.83030   0.50040   Biso      1.000     C          0.641694  
         C33       1.0000    0.14890   0.76270   0.84180   Biso      1.000     C          0.060078999999999994          
         C34       1.0000    0.06860   0.91160   0.07580   Biso      1.000     C          -0.098932           
         C35       1.0000    0.10030   0.89070   0.99280   Biso      1.000     C          -0.12219100000000001          
         C36       1.0000    0.12360   0.79030   0.93420   Biso      1.000     C          0.08245599999999999           
         C37       1.0000    0.11760   0.71340   0.96280   Biso      1.000     C          -0.14949500000000002          
         C38       1.0000    0.08800   0.73490   0.04700   Biso      1.000     C          -0.103645           
         C39       1.0000    0.06110   0.83400   0.10420   Biso      1.000     C          -0.011665           
         C40       1.0000    0.02070   0.85500   0.19180   Biso      1.000     C          0.581863  
         C41       1.0000    0.17990   0.04660   0.45760   Biso      1.000     C          0.6735760000000001  
         C42       1.0000    0.31000   0.18360   0.47460   Biso      1.000     C          -0.128611           
         C43       1.0000    0.25380   0.09030   0.41820   Biso      1.000     C          -0.008801           
         C44       1.0000    0.26420   0.03490   0.32460   Biso      1.000     C          -0.188376           
         C45       1.0000    0.33200   0.07260   0.28780   Biso      1.000     C          0.225487  
         C46       1.0000    0.38410   0.17100   0.34400   Biso      1.000     C          -0.19128299999999998          
         C47       1.0000    0.37480   0.22570   0.43820   Biso      1.000     C          -0.014431999999999999         
         C48       1.0000    0.35110   0.92090   0.15820   Biso      1.000     C          0.060801  
         C49       1.0000    0.19000   0.70900   0.52540   Biso      1.000     C          -0.12712400000000001          
         C50       1.0000    0.74620   0.90970   0.58180   Biso      1.000     C          -0.008801           
         C51       1.0000    0.66800   0.92740   0.71220   Biso      1.000     C          0.22548600000000002           
         C52       1.0000    0.73580   0.96510   0.67540   Biso      1.000     C          -0.188375           
         C53       1.0000    0.52070   0.33680   0.19180   Biso      1.000     C          0.580217  
         C54       1.0000    0.56110   0.27020   0.10420   Biso      1.000     C          -0.012302           
         C55       1.0000    0.58800   0.31210   0.04700   Biso      1.000     C          -0.10388499999999999          
         C56       1.0000    0.61760   0.24940   0.96280   Biso      1.000     C          -0.149005           
         C57       1.0000    0.62360   0.14390   0.93420   Biso      1.000     C          0.082485  
         C58       1.0000    0.32010   0.58900   0.54240   Biso      1.000     C          0.6730729999999999  
         C59       1.0000    0.56860   0.16420   0.07580   Biso      1.000     C          -0.097484           
         C60       1.0000    0.61590   0.82900   0.65600   Biso      1.000     C          -0.19128299999999998          
         C61       1.0000    0.62520   0.77430   0.56180   Biso      1.000     C          -0.014431999999999999         
         C62       1.0000    0.60030   0.10210   0.99280   Biso      1.000     C          -0.12348900000000002          
         C63       1.0000    0.64890   0.07910   0.84180   Biso      1.000     C          0.060801  
         C64       1.0000    0.56650   0.67010   0.50040   Biso      1.000     C          0.6422640000000001  
         H1        1.0000    0.58590   0.38330   0.06600   Biso      1.000     H          0.12295   
         H2        1.0000    0.92500   0.11840   0.31840   Biso      1.000     H          0.136945  
         H3        1.0000    0.84100   0.30600   0.18800   Biso      1.000     H          0.082372  
         H4        1.0000    0.94810   0.02160   0.88640   Biso      1.000     H          0.12322999999999999           
         H5        1.0000    0.89360   0.05620   0.02460   Biso      1.000     H          0.11919500000000001           
         H6        1.0000    0.86620   0.35360   0.07540   Biso      1.000     H          0.115816  
         H7        1.0000    0.91410   0.31730   0.93400   Biso      1.000     H          0.122564  
         H8        1.0000    0.72520   0.31440   0.28640   Biso      1.000     H          0.130356  
         H9        1.0000    0.57500   0.80000   0.68160   Biso      1.000     H          0.136123  
         H10       1.0000    0.65900   0.11800   0.81200   Biso      1.000     H          0.08161   
         H11       1.0000    0.55190   0.13520   0.11360   Biso      1.000     H          0.12238099999999999           
         H12       1.0000    0.60640   0.03160   0.97540   Biso      1.000     H          0.119833  
         H13       1.0000    0.63380   0.27820   0.92460   Biso      1.000     H          0.116125  
         H14       1.0000    0.69520   0.78080   0.46200   Biso      1.000     H          0.131395  
         H15       1.0000    0.77480   0.02800   0.71360   Biso      1.000     H          0.13003900000000002           
         H16       1.0000    0.41410   0.61670   0.93400   Biso      1.000     H          0.122949  
         H17       1.0000    0.36620   0.72180   0.07540   Biso      1.000     H          0.116126  
         H18       1.0000    0.19520   0.68120   0.46200   Biso      1.000     H          0.130824  
         H19       1.0000    0.27480   0.68560   0.71360   Biso      1.000     H          0.130356  
         H20       1.0000    0.07500   0.88160   0.68160   Biso      1.000     H          0.136945  
         H21       1.0000    0.15900   0.69400   0.81200   Biso      1.000     H          0.082372  
         H22       1.0000    0.80480   0.31880   0.53800   Biso      1.000     H          0.130824  
         H23       1.0000    0.10640   0.94380   0.97540   Biso      1.000     H          0.11919500000000001           
         H24       1.0000    0.05190   0.97840   0.11360   Biso      1.000     H          0.12322999999999999           
         H25       1.0000    0.08590   0.68270   0.06600   Biso      1.000     H          0.122564  
         H26       1.0000    0.30480   0.21920   0.53800   Biso      1.000     H          0.131395  
         H27       1.0000    0.22520   0.97200   0.28640   Biso      1.000     H          0.13003900000000002           
         H28       1.0000    0.42500   0.20000   0.31840   Biso      1.000     H          0.136123  
         H29       1.0000    0.44810   0.86480   0.88640   Biso      1.000     H          0.12238099999999999           
         H30       1.0000    0.39360   0.96840   0.02460   Biso      1.000     H          0.119834  
         H31       1.0000    0.13380   0.64640   0.92460   Biso      1.000     H          0.115816  
         H32       1.0000    0.34100   0.88200   0.18800   Biso      1.000     H          0.08161   
         N1        1.0000    0.65000   0.98096   0.80592   Biso      1.000     N          -0.275827           
         N2        1.0000    0.85000   0.17504   0.19408   Biso      1.000     N          -0.27591  
         N3        1.0000    0.35000   0.01904   0.19408   Biso      1.000     N          -0.275827           
         N4        1.0000    0.15000   0.82496   0.80592   Biso      1.000     N          -0.27591  
         Nd1       1.0000    0.45332   0.46871   0.36288   Biso      1.000     Nd          2.070465  
         Nd2       1.0000    0.95332   0.89417   0.36288   Biso      1.000     Nd          2.070765  
         Nd3       1.0000    0.54668   0.53129   0.63712   Biso      1.000     Nd          2.070465  
         Nd4       1.0000    0.04668   0.10583   0.63712   Biso      1.000     Nd          2.070765  
         O1        1.0000    0.03810   0.92086   0.53672   Biso      1.000     O          -0.746038           
         O2        1.0000    0.04570   0.77208   0.41176   Biso      1.000     O          -0.609033           
         O3        1.0000    0.02130   0.78295   0.21710   Biso      1.000     O          -0.663401           
         O4        1.0000    0.98860   0.94134   0.23728   Biso      1.000     O          -0.642465           
         O5        1.0000    0.17310   0.10105   0.54250   Biso      1.000     O          -0.70909  
         O6        1.0000    0.13140   0.96062   0.40284   Biso      1.000     O          -0.633567           
         O7        1.0000    0.46190   0.38414   0.46328   Biso      1.000     O          -0.745953           
         O8        1.0000    0.45430   0.36032   0.58824   Biso      1.000     O          -0.609441           
         O9        1.0000    0.47870   0.56585   0.78290   Biso      1.000     O          -0.663044           
         O10       1.0000    0.51140   0.70406   0.76272   Biso      1.000     O          -0.641234           
         O11       1.0000    0.67310   0.44145   0.54250   Biso      1.000     O          -0.708658           
         O12       1.0000    0.63140   0.44222   0.40284   Biso      1.000     O          -0.6336189999999999           
         O13       1.0000    0.96190   0.07914   0.46328   Biso      1.000     O          -0.746038           
         O14       1.0000    0.95430   0.22792   0.58824   Biso      1.000     O          -0.609033           
         O15       1.0000    0.97870   0.21705   0.78290   Biso      1.000     O          -0.663401           
         O16       1.0000    0.01140   0.05866   0.76272   Biso      1.000     O          -0.642465           
         O17       1.0000    0.82690   0.89895   0.45750   Biso      1.000     O          -0.70909  
         O18       1.0000    0.86860   0.03938   0.59716   Biso      1.000     O          -0.633567           
         O19       1.0000    0.53810   0.61586   0.53672   Biso      1.000     O          -0.745953           
         O20       1.0000    0.54570   0.63968   0.41176   Biso      1.000     O          -0.609441           
         O21       1.0000    0.52130   0.43415   0.21710   Biso      1.000     O          -0.663044           
         O22       1.0000    0.48860   0.29594   0.23728   Biso      1.000     O          -0.641234           
         O23       1.0000    0.36860   0.55778   0.59716   Biso      1.000     O          -0.6336189999999999           
         O24       1.0000    0.32690   0.55855   0.45750   Biso      1.000     O          -0.708658 