
##########################################################################
#               Crystallographic Information Format file
#               Produced by PyCifRW module
#
#  This is a CIF file.  CIF has been adopted by the International
#  Union of Crystallography as the standard for data archiving and
#  transmission.
#
#  For information on this file format, follow the CIF links at
#  http://www.iucr.org
##########################################################################

data_image0

_cell_length_a                          13.1654
_cell_length_b                          13.8282
_cell_length_c                          16.0313
_cell_angle_alpha                       115.549
_cell_angle_beta                        101.117
_cell_angle_gamma                       90
_symmetry_space_group_name_H-M          'P 1'
_symmetry_int_tables_number             1
loop_
  _symmetry_equiv_pos_as_xyz
         'x, y, z' 
loop_
  _atom_site_label
  _atom_site_occupancy
  _atom_site_fract_x
  _atom_site_fract_y
  _atom_site_fract_z
  _atom_site_thermal_displace_type
  _atom_site_B_iso_or_equiv
  _atom_site_type_symbol
  _atom_site_charge
         C1        1.0000    0.64470   0.39120   0.75520   Biso      1.000     C          0.189164  
         C2        1.0000    0.92190   0.66210   0.95140   Biso      1.000     C          -0.115561           
         C3        1.0000    0.88960   0.72370   0.03360   Biso      1.000     C          -0.147938           
         C4        1.0000    0.88760   0.83300   0.06440   Biso      1.000     C          0.098786  
         C5        1.0000    0.91610   0.88020   0.01120   Biso      1.000     C          -0.122226           
         C6        1.0000    0.94730   0.81750   0.92740   Biso      1.000     C          -0.091042           
         C7        1.0000    0.95450   0.70800   0.89920   Biso      1.000     C          -0.02071  
         C8        1.0000    0.99340   0.64300   0.81200   Biso      1.000     C          0.590812  
         C9        1.0000    0.77950   0.31710   0.72080   Biso      1.000     C          0.411925  
         C10       1.0000    0.17890   0.41670   0.44800   Biso      1.000     C          0.660432  
         C11       1.0000    0.31300   0.29528   0.46656   Biso      1.000     C          -0.129459           
         C12       1.0000    0.25450   0.33555   0.40830   Biso      1.000     C          -0.007116           
         C13       1.0000    0.26660   0.30260   0.31620   Biso      1.000     C          -0.188921           
         C14       1.0000    0.33630   0.22630   0.28140   Biso      1.000     C          0.227674  
         C15       1.0000    0.38880   0.18090   0.33720   Biso      1.000     C          -0.18791  
         C16       1.0000    0.37980   0.21734   0.43088   Biso      1.000     C          -0.010893           
         C17       1.0000    0.44090   0.17661   0.49582   Biso      1.000     C          0.636121  
         C18       1.0000    0.35910   0.25910   0.15640   Biso      1.000     C          0.050809  
         C19       1.0000    0.42190   0.28930   0.95140   Biso      1.000     C          -0.116211           
         C20       1.0000    0.38960   0.30990   0.03360   Biso      1.000     C          -0.1457   
         C21       1.0000    0.38760   0.23140   0.06440   Biso      1.000     C          0.098649  
         C22       1.0000    0.44730   0.10990   0.92740   Biso      1.000     C          -0.090441           
         C23       1.0000    0.45450   0.19120   0.89920   Biso      1.000     C          -0.021564           
         C24       1.0000    0.49340   0.16900   0.81200   Biso      1.000     C          0.591196  
         C25       1.0000    0.85530   0.63600   0.24480   Biso      1.000     C          0.189162  
         C26       1.0000    0.72050   0.59630   0.27920   Biso      1.000     C          0.413702  
         C27       1.0000    0.85910   0.89730   0.15640   Biso      1.000     C          0.049883  
         C28       1.0000    0.32110   0.96870   0.55200   Biso      1.000     C          0.661815  
         C29       1.0000    0.94090   0.31921   0.49582   Biso      1.000     C          0.637647  
         C30       1.0000    0.88880   0.15630   0.33720   Biso      1.000     C          -0.188147           
         C31       1.0000    0.35530   0.60880   0.24480   Biso      1.000     C          0.189165  
         C32       1.0000    0.22050   0.68290   0.27920   Biso      1.000     C          0.411928  
         C33       1.0000    0.82110   0.58330   0.55200   Biso      1.000     C          0.660432  
         C34       1.0000    0.68700   0.70472   0.53344   Biso      1.000     C          -0.129461           
         C35       1.0000    0.74550   0.66445   0.59170   Biso      1.000     C          -0.007112           
         C36       1.0000    0.73340   0.69740   0.68380   Biso      1.000     C          -0.188921           
         C37       1.0000    0.66370   0.77370   0.71860   Biso      1.000     C          0.227673  
         C38       1.0000    0.61120   0.81910   0.66280   Biso      1.000     C          -0.18791  
         C39       1.0000    0.62020   0.78266   0.56912   Biso      1.000     C          -0.010897           
         C40       1.0000    0.55910   0.82339   0.50418   Biso      1.000     C          0.636121  
         C41       1.0000    0.64090   0.74090   0.84360   Biso      1.000     C          0.050809  
         C42       1.0000    0.57810   0.71070   0.04860   Biso      1.000     C          -0.116211           
         C43       1.0000    0.61040   0.69010   0.96640   Biso      1.000     C          -0.1457   
         C44       1.0000    0.61240   0.76860   0.93560   Biso      1.000     C          0.09865   
         C45       1.0000    0.58390   0.86900   0.98880   Biso      1.000     C          -0.12129  
         C46       1.0000    0.55270   0.89010   0.07260   Biso      1.000     C          -0.090439           
         C47       1.0000    0.54550   0.80880   0.10080   Biso      1.000     C          -0.021564           
         C48       1.0000    0.50660   0.83100   0.18800   Biso      1.000     C          0.591196  
         C49       1.0000    0.14470   0.36400   0.75520   Biso      1.000     C          0.189158  
         C50       1.0000    0.27950   0.40370   0.72080   Biso      1.000     C          0.413697  
         C51       1.0000    0.67890   0.03130   0.44800   Biso      1.000     C          0.661814  
         C52       1.0000    0.81300   0.17128   0.46656   Biso      1.000     C          -0.126536           
         C53       1.0000    0.75450   0.07275   0.40830   Biso      1.000     C          -0.008337           
         C54       1.0000    0.76660   0.01360   0.31620   Biso      1.000     C          -0.188366           
         C55       1.0000    0.83630   0.05510   0.28140   Biso      1.000     C          0.227066  
         C56       1.0000    0.87980   0.21354   0.43088   Biso      1.000     C          -0.012988           
         C57       1.0000    0.18700   0.82872   0.53344   Biso      1.000     C          -0.126538           
         C58       1.0000    0.41610   0.13100   0.01120   Biso      1.000     C          -0.121289           
         C59       1.0000    0.23340   0.98640   0.68380   Biso      1.000     C          -0.188365           
         C60       1.0000    0.00660   0.35700   0.18800   Biso      1.000     C          0.59081   
         C61       1.0000    0.04550   0.29200   0.10080   Biso      1.000     C          -0.020715           
         C62       1.0000    0.05270   0.18250   0.07260   Biso      1.000     C          -0.091041           
         C63       1.0000    0.11240   0.16700   0.93560   Biso      1.000     C          0.09878   
         C64       1.0000    0.11040   0.27630   0.96640   Biso      1.000     C          -0.147934           
         C65       1.0000    0.24550   0.92725   0.59170   Biso      1.000     C          -0.008336           
         C66       1.0000    0.08390   0.11980   0.98880   Biso      1.000     C          -0.122223           
         C67       1.0000    0.14090   0.10270   0.84360   Biso      1.000     C          0.049883  
         C68       1.0000    0.05910   0.68079   0.50418   Biso      1.000     C          0.637647  
         C69       1.0000    0.12020   0.78646   0.56912   Biso      1.000     C          -0.012989           
         C70       1.0000    0.11120   0.84370   0.66280   Biso      1.000     C          -0.188148           
         C71       1.0000    0.16370   0.94490   0.71860   Biso      1.000     C          0.227066  
         C72       1.0000    0.07810   0.33790   0.04860   Biso      1.000     C          -0.115554           
         H1        1.0000    0.41440   0.07740   0.03140   Biso      1.000     H          0.120631  
         H2        1.0000    0.57720   0.40040   0.76480   Biso      1.000     H          0.110332  
         H3        1.0000    0.30710   0.32050   0.52920   Biso      1.000     H          0.11836   
         H4        1.0000    0.22880   0.33090   0.27800   Biso      1.000     H          0.129562  
         H5        1.0000    0.43040   0.12580   0.31200   Biso      1.000     H          0.138012  
         H6        1.0000    0.42170   0.34270   0.93080   Biso      1.000     H          0.105625  
         H7        1.0000    0.36910   0.37730   0.06860   Biso      1.000     H          0.109012  
         H8        1.0000    0.46350   0.04110   0.89000   Biso      1.000     H          0.124711  
         H9        1.0000    0.07830   0.41190   0.06920   Biso      1.000     H          0.106236  
         H10       1.0000    0.16200   0.13600   0.81400   Biso      1.000     H          0.081832  
         H11       1.0000    0.92280   0.63560   0.23520   Biso      1.000     H          0.110605  
         H12       1.0000    0.19290   0.79130   0.47080   Biso      1.000     H          0.117574  
         H13       1.0000    0.27120   0.05290   0.72200   Biso      1.000     H          0.129597  
         H14       1.0000    0.06960   0.81380   0.68800   Biso      1.000     H          0.138645  
         H15       1.0000    0.86400   0.46700   0.76200   Biso      1.000     H          0.302982  
         H16       1.0000    0.13090   0.30870   0.93140   Biso      1.000     H          0.110074  
         H17       1.0000    0.08560   0.04600   0.96860   Biso      1.000     H          0.121671  
         H18       1.0000    0.03650   0.15110   0.11000   Biso      1.000     H          0.124898  
         H19       1.0000    0.63600   0.70500   0.23800   Biso      1.000     H          0.302822  
         H20       1.0000    0.96350   0.84890   0.89000   Biso      1.000     H          0.124898  
         H21       1.0000    0.33800   0.32200   0.18600   Biso      1.000     H          0.081102  
         H22       1.0000    0.86910   0.69130   0.06860   Biso      1.000     H          0.110075  
         H23       1.0000    0.91440   0.95400   0.03140   Biso      1.000     H          0.121671  
         H24       1.0000    0.13600   0.53300   0.23800   Biso      1.000     H          0.302982  
         H25       1.0000    0.66200   0.67800   0.81400   Biso      1.000     H          0.081102  
         H26       1.0000    0.42280   0.59960   0.23520   Biso      1.000     H          0.11033   
         H27       1.0000    0.69290   0.67950   0.47080   Biso      1.000     H          0.11836   
         H28       1.0000    0.77120   0.66910   0.72200   Biso      1.000     H          0.129562  
         H29       1.0000    0.57830   0.65730   0.06920   Biso      1.000     H          0.105626  
         H30       1.0000    0.63090   0.62270   0.93140   Biso      1.000     H          0.109011  
         H31       1.0000    0.56960   0.87420   0.68800   Biso      1.000     H          0.138012  
         H32       1.0000    0.53650   0.95890   0.11000   Biso      1.000     H          0.124711  
         H33       1.0000    0.92170   0.58810   0.93080   Biso      1.000     H          0.106235  
         H34       1.0000    0.58560   0.92260   0.96860   Biso      1.000     H          0.120632  
         H35       1.0000    0.72880   0.94710   0.27800   Biso      1.000     H          0.129597  
         H36       1.0000    0.80710   0.20870   0.52920   Biso      1.000     H          0.117574  
         H37       1.0000    0.93040   0.18620   0.31200   Biso      1.000     H          0.138644  
         H38       1.0000    0.83800   0.86400   0.18600   Biso      1.000     H          0.081832  
         H39       1.0000    0.36400   0.29500   0.76200   Biso      1.000     H          0.302823  
         H40       1.0000    0.07720   0.36440   0.76480   Biso      1.000     H          0.110607  
         N1        1.0000    0.68250   0.29228   0.72336   Biso      1.000     N          -0.487269           
         N2        1.0000    0.29830   0.32616   0.74792   Biso      1.000     N          -0.149766           
         N3        1.0000    0.20960   0.29920   0.77120   Biso      1.000     N          -0.152311           
         N4        1.0000    0.18250   0.43108   0.72336   Biso      1.000     N          -0.488372           
         N5        1.0000    0.85550   0.99847   0.18854   Biso      1.000     N          -0.273579           
         N6        1.0000    0.85760   0.24960   0.70200   Biso      1.000     N          -0.207274           
         N7        1.0000    0.79830   0.42176   0.74792   Biso      1.000     N          -0.149524           
         N8        1.0000    0.70960   0.47200   0.77120   Biso      1.000     N          -0.152238           
         N9        1.0000    0.35550   0.19007   0.18854   Biso      1.000     N          -0.27397  
         N10       1.0000    0.35760   0.45240   0.70200   Biso      1.000     N          -0.207911           
         N11       1.0000    0.70170   0.67384   0.25208   Biso      1.000     N          -0.149764           
         N12       1.0000    0.79040   0.70080   0.22880   Biso      1.000     N          -0.152314           
         N13       1.0000    0.81750   0.56892   0.27664   Biso      1.000     N          -0.488376           
         N14       1.0000    0.14450   0.00153   0.81146   Biso      1.000     N          -0.27358  
         N15       1.0000    0.14240   0.75040   0.29800   Biso      1.000     N          -0.207275           
         N16       1.0000    0.20170   0.57824   0.25208   Biso      1.000     N          -0.149524           
         N17       1.0000    0.29040   0.52800   0.22880   Biso      1.000     N          -0.15224  
         N18       1.0000    0.31750   0.70772   0.27664   Biso      1.000     N          -0.487271           
         N19       1.0000    0.64240   0.54760   0.29800   Biso      1.000     N          -0.207911           
         N20       1.0000    0.64450   0.80993   0.81146   Biso      1.000     N          -0.273969           
         Nd1       1.0000    0.94067   0.47501   0.36375   Biso      1.000     Nd          2.035618  
         Nd2       1.0000    0.44067   0.88874   0.36375   Biso      1.000     Nd          2.03486   
         Nd3       1.0000    0.05933   0.52499   0.63625   Biso      1.000     Nd          2.03562   
         Nd4       1.0000    0.55933   0.11126   0.63625   Biso      1.000     Nd          2.034862  
         O1        1.0000    0.53380   0.91944   0.53868   Biso      1.000     O          -0.741326           
         O2        1.0000    0.53460   0.76226   0.41672   Biso      1.000     O          -0.600016           
         O3        1.0000    0.51430   0.76479   0.22238   Biso      1.000     O          -0.642062           
         O4        1.0000    0.46340   0.91670   0.22520   Biso      1.000     O          -0.6428   
         O5        1.0000    0.62290   0.94616   0.39272   Biso      1.000     O          -0.63768  
         O6        1.0000    0.68020   0.08622   0.53544   Biso      1.000     O          -0.688768           
         O7        1.0000    0.96620   0.38076   0.46132   Biso      1.000     O          -0.741673           
         O8        1.0000    0.96540   0.34554   0.58328   Biso      1.000     O          -0.600719           
         O9        1.0000    0.98570   0.54241   0.77762   Biso      1.000     O          -0.64256  
         O10       1.0000    0.03660   0.69150   0.77480   Biso      1.000     O          -0.643055           
         O11       1.0000    0.12290   0.44656   0.39272   Biso      1.000     O          -0.637049           
         O12       1.0000    0.18020   0.44922   0.53544   Biso      1.000     O          -0.68831  
         O13       1.0000    0.46620   0.08056   0.46132   Biso      1.000     O          -0.741327           
         O14       1.0000    0.46540   0.23774   0.58328   Biso      1.000     O          -0.600026           
         O15       1.0000    0.48570   0.23521   0.77762   Biso      1.000     O          -0.642062           
         O16       1.0000    0.53660   0.08330   0.77480   Biso      1.000     O          -0.6428   
         O17       1.0000    0.37710   0.05384   0.60728   Biso      1.000     O          -0.637678           
         O18       1.0000    0.31980   0.91378   0.46456   Biso      1.000     O          -0.688774           
         O19       1.0000    0.03380   0.61924   0.53868   Biso      1.000     O          -0.741672           
         O20       1.0000    0.03460   0.65446   0.41672   Biso      1.000     O          -0.600713           
         O21       1.0000    0.01430   0.45759   0.22238   Biso      1.000     O          -0.64256  
         O22       1.0000    0.96340   0.30850   0.22520   Biso      1.000     O          -0.643056           
         O23       1.0000    0.81980   0.55078   0.46456   Biso      1.000     O          -0.688322           
         O24       1.0000    0.87710   0.55344   0.60728   Biso      1.000     O          -0.637049 