
##########################################################################
#               Crystallographic Information Format file
#               Produced by PyCifRW module
#
#  This is a CIF file.  CIF has been adopted by the International
#  Union of Crystallography as the standard for data archiving and
#  transmission.
#
#  For information on this file format, follow the CIF links at
#  http://www.iucr.org
##########################################################################

data_image0

_cell_length_a                          12.8273
_cell_length_b                          14.4649
_cell_length_c                          16.033
_cell_angle_alpha                       116.814
_cell_angle_beta                        102.168
_cell_angle_gamma                       90
_symmetry_space_group_name_H-M          'P 1'
_symmetry_int_tables_number             1
loop_
  _symmetry_equiv_pos_as_xyz
         'x, y, z' 
loop_
  _atom_site_label
  _atom_site_occupancy
  _atom_site_fract_x
  _atom_site_fract_y
  _atom_site_fract_z
  _atom_site_thermal_displace_type
  _atom_site_B_iso_or_equiv
  _atom_site_type_symbol
  _atom_site_charge
         C1        1.0000    0.83420   0.22280   0.28720   Biso      1.000     C          0.22323400000000002           
         C2        1.0000    0.38470   0.84960   0.06680   Biso      1.000     C          0.06914   
         C3        1.0000    0.40700   0.89390   0.00840   Biso      1.000     C          -0.120431           
         C4        1.0000    0.44180   0.83150   0.92580   Biso      1.000     C          -0.099815           
         C5        1.0000    0.45300   0.72680   0.89960   Biso      1.000     C          -0.013659000000000001         
         C6        1.0000    0.49660   0.66100   0.81240   Biso      1.000     C          0.586529  
         C7        1.0000    0.68450   0.41700   0.45540   Biso      1.000     C          0.66745   
         C8        1.0000    0.81560   0.29400   0.47320   Biso      1.000     C          -0.12855999999999998          
         C9        1.0000    0.75790   0.33380   0.41680   Biso      1.000     C          -0.004961999999999999         
         C10       1.0000    0.76730   0.29760   0.32240   Biso      1.000     C          -0.191878           
         C11       1.0000    0.88670   0.17630   0.34240   Biso      1.000     C          -0.183782           
         C12       1.0000    0.87880   0.21490   0.43800   Biso      1.000     C          -0.017463           
         C13       1.0000    0.93910   0.17400   0.50140   Biso      1.000     C          0.64922   
         C14       1.0000    0.85660   0.24670   0.15820   Biso      1.000     C          0.076776  
         C15       1.0000    0.92620   0.27160   0.95440   Biso      1.000     C          -0.10631099999999999          
         C16       1.0000    0.89620   0.29550   0.04020   Biso      1.000     C          -0.154393           
         C17       1.0000    0.88470   0.21720   0.06680   Biso      1.000     C          0.06931   
         C18       1.0000    0.90700   0.11450   0.00840   Biso      1.000     C          -0.119995           
         C19       1.0000    0.94180   0.09430   0.92580   Biso      1.000     C          -0.09944  
         C20       1.0000    0.95300   0.17280   0.89960   Biso      1.000     C          -0.014781           
         C21       1.0000    0.99660   0.15140   0.81240   Biso      1.000     C          0.588248  
         C22       1.0000    0.81550   0.96160   0.54460   Biso      1.000     C          0.6691090000000001  
         C23       1.0000    0.39620   0.74470   0.04020   Biso      1.000     C          -0.152886           
         C24       1.0000    0.68440   0.82080   0.52680   Biso      1.000     C          -0.12679300000000002          
         C25       1.0000    0.42620   0.68280   0.95440   Biso      1.000     C          -0.106584           
         C26       1.0000    0.43910   0.32740   0.50140   Biso      1.000     C          0.649334  
         C27       1.0000    0.24210   0.66620   0.58320   Biso      1.000     C          -0.004963           
         C28       1.0000    0.23270   0.70240   0.67760   Biso      1.000     C          -0.191879           
         C29       1.0000    0.16580   0.77720   0.71280   Biso      1.000     C          0.22324000000000002           
         C30       1.0000    0.11330   0.82370   0.65760   Biso      1.000     C          -0.183791           
         C31       1.0000    0.12120   0.78510   0.56200   Biso      1.000     C          -0.01747  
         C32       1.0000    0.06090   0.82600   0.49860   Biso      1.000     C          0.6492100000000001  
         C33       1.0000    0.14340   0.75330   0.84180   Biso      1.000     C          0.07678099999999999           
         C34       1.0000    0.07380   0.72840   0.04560   Biso      1.000     C          -0.106313           
         C35       1.0000    0.10380   0.70450   0.95980   Biso      1.000     C          -0.154394           
         C36       1.0000    0.11530   0.78280   0.93320   Biso      1.000     C          0.06930399999999999           
         C37       1.0000    0.09300   0.88550   0.99160   Biso      1.000     C          -0.119999           
         C38       1.0000    0.05820   0.90570   0.07420   Biso      1.000     C          -0.099442           
         C39       1.0000    0.04700   0.82720   0.10040   Biso      1.000     C          -0.014771000000000001         
         C40       1.0000    0.00340   0.84860   0.18760   Biso      1.000     C          0.588249  
         C41       1.0000    0.18450   0.03840   0.45540   Biso      1.000     C          0.6691189999999999  
         C42       1.0000    0.31560   0.17920   0.47320   Biso      1.000     C          -0.12679400000000002          
         C43       1.0000    0.25790   0.08300   0.41680   Biso      1.000     C          -0.006481000000000001         
         C44       1.0000    0.26730   0.02480   0.32240   Biso      1.000     C          -0.191186           
         C45       1.0000    0.33420   0.06440   0.28720   Biso      1.000     C          0.223597  
         C46       1.0000    0.38670   0.16610   0.34240   Biso      1.000     C          -0.18403  
         C47       1.0000    0.37880   0.22310   0.43800   Biso      1.000     C          -0.019051           
         C48       1.0000    0.35660   0.91150   0.15820   Biso      1.000     C          0.07589299999999999           
         C49       1.0000    0.18440   0.70600   0.52680   Biso      1.000     C          -0.128553           
         C50       1.0000    0.74210   0.91700   0.58320   Biso      1.000     C          -0.006488           
         C51       1.0000    0.66580   0.93560   0.71280   Biso      1.000     C          0.22359400000000001           
         C52       1.0000    0.73270   0.97520   0.67760   Biso      1.000     C          -0.191182           
         C53       1.0000    0.50340   0.33900   0.18760   Biso      1.000     C          0.5865279999999999  
         C54       1.0000    0.54700   0.27320   0.10040   Biso      1.000     C          -0.013658000000000002         
         C55       1.0000    0.55820   0.16850   0.07420   Biso      1.000     C          -0.099813           
         C56       1.0000    0.59300   0.10610   0.99160   Biso      1.000     C          -0.12043  
         C57       1.0000    0.61530   0.15040   0.93320   Biso      1.000     C          0.069138  
         C58       1.0000    0.31550   0.58300   0.54460   Biso      1.000     C          0.667449  
         C59       1.0000    0.57380   0.31720   0.04560   Biso      1.000     C          -0.106584           
         C60       1.0000    0.61330   0.83390   0.65760   Biso      1.000     C          -0.184025           
         C61       1.0000    0.62120   0.77690   0.56200   Biso      1.000     C          -0.019048           
         C62       1.0000    0.60380   0.25530   0.95980   Biso      1.000     C          -0.152886           
         C63       1.0000    0.64340   0.08850   0.84180   Biso      1.000     C          0.075894  
         C64       1.0000    0.56090   0.67260   0.49860   Biso      1.000     C          0.6493329999999999  
         H1        1.0000    0.54210   0.13990   0.11220   Biso      1.000     H          0.12474   
         H2        1.0000    0.92610   0.12070   0.31600   Biso      1.000     H          0.141028  
         H3        1.0000    0.85300   0.32500   0.19400   Biso      1.000     H          0.07123099999999999           
         H4        1.0000    0.92830   0.32220   0.93380   Biso      1.000     H          0.123893  
         H5        1.0000    0.88400   0.36320   0.07940   Biso      1.000     H          0.11848199999999999           
         H6        1.0000    0.89840   0.06160   0.02500   Biso      1.000     H          0.123465  
         H7        1.0000    0.95790   0.02770   0.88780   Biso      1.000     H          0.12503599999999998           
         H8        1.0000    0.72850   0.32390   0.28340   Biso      1.000     H          0.131401  
         H9        1.0000    0.57390   0.80470   0.68400   Biso      1.000     H          0.140935  
         H10       1.0000    0.64700   0.13100   0.80600   Biso      1.000     H          0.071424  
         H11       1.0000    0.57170   0.38840   0.06620   Biso      1.000     H          0.123366  
         H12       1.0000    0.61600   0.28380   0.92060   Biso      1.000     H          0.118226  
         H13       1.0000    0.60160   0.03660   0.97500   Biso      1.000     H          0.12376199999999998           
         H14       1.0000    0.68810   0.78420   0.46280   Biso      1.000     H          0.127365  
         H15       1.0000    0.77150   0.04050   0.71660   Biso      1.000     H          0.131466  
         H16       1.0000    0.45790   0.86010   0.88780   Biso      1.000     H          0.12473900000000002           
         H17       1.0000    0.39840   0.96340   0.02500   Biso      1.000     H          0.123761  
         H18       1.0000    0.18810   0.67860   0.46280   Biso      1.000     H          0.127604  
         H19       1.0000    0.27150   0.67610   0.71660   Biso      1.000     H          0.131403  
         H20       1.0000    0.07390   0.87930   0.68400   Biso      1.000     H          0.141023  
         H21       1.0000    0.14700   0.67500   0.80600   Biso      1.000     H          0.07123099999999999           
         H22       1.0000    0.81190   0.32140   0.53720   Biso      1.000     H          0.127604  
         H23       1.0000    0.11600   0.63680   0.92060   Biso      1.000     H          0.11848   
         H24       1.0000    0.07170   0.67780   0.06620   Biso      1.000     H          0.123892  
         H25       1.0000    0.04210   0.97230   0.11220   Biso      1.000     H          0.12503499999999998           
         H26       1.0000    0.31190   0.21580   0.53720   Biso      1.000     H          0.127365  
         H27       1.0000    0.22850   0.95950   0.28340   Biso      1.000     H          0.131468  
         H28       1.0000    0.42610   0.19530   0.31600   Biso      1.000     H          0.140934  
         H29       1.0000    0.42830   0.61160   0.93380   Biso      1.000     H          0.123366  
         H30       1.0000    0.38400   0.71620   0.07940   Biso      1.000     H          0.118226  
         H31       1.0000    0.10160   0.93840   0.97500   Biso      1.000     H          0.12346199999999999           
         H32       1.0000    0.35300   0.86900   0.19400   Biso      1.000     H          0.071424  
         N1        1.0000    0.64780   0.99090   0.80800   Biso      1.000     N          -0.28056  
         N2        1.0000    0.85220   0.18290   0.19200   Biso      1.000     N          -0.280842           
         N3        1.0000    0.35220   0.00910   0.19200   Biso      1.000     N          -0.28056  
         N4        1.0000    0.14780   0.81710   0.80800   Biso      1.000     N          -0.280852           
         Nd1       1.0000    0.44084   0.46646   0.36057   Biso      1.000     Nd          2.071325  
         Nd2       1.0000    0.94084   0.89411   0.36057   Biso      1.000     Nd          2.0720680000000002  
         Nd3       1.0000    0.55916   0.53354   0.63943   Biso      1.000     Nd          2.071324  
         Nd4       1.0000    0.05916   0.10589   0.63944   Biso      1.000     Nd          2.072082  
         O1        1.0000    0.03610   0.91970   0.53740   Biso      1.000     O          -0.7727069999999999           
         O2        1.0000    0.03510   0.77074   0.41068   Biso      1.000     O          -0.58917  
         O3        1.0000    0.97200   0.93618   0.23156   Biso      1.000     O          -0.656054           
         O4        1.0000    0.00120   0.77900   0.21220   Biso      1.000     O          -0.6472760000000001           
         O5        1.0000    0.12880   0.95290   0.39860   Biso      1.000     O          -0.629012           
         O6        1.0000    0.18490   0.09408   0.54316   Biso      1.000     O          -0.7130989999999999           
         O7        1.0000    0.46390   0.38230   0.46260   Biso      1.000     O          -0.772467           
         O8        1.0000    0.46490   0.36006   0.58932   Biso      1.000     O          -0.588548           
         O9        1.0000    0.52800   0.70462   0.76844   Biso      1.000     O          -0.6548729999999999           
         O10       1.0000    0.49880   0.56680   0.78780   Biso      1.000     O          -0.647051           
         O11       1.0000    0.62880   0.44570   0.39860   Biso      1.000     O          -0.627554           
         O12       1.0000    0.68490   0.44908   0.54316   Biso      1.000     O          -0.7129800000000001           
         O13       1.0000    0.96390   0.08030   0.46260   Biso      1.000     O          -0.772732           
         O14       1.0000    0.96490   0.22926   0.58932   Biso      1.000     O          -0.589184           
         O15       1.0000    0.02800   0.06382   0.76844   Biso      1.000     O          -0.656057           
         O16       1.0000    0.99880   0.22100   0.78780   Biso      1.000     O          -0.647245           
         O17       1.0000    0.87120   0.04710   0.60140   Biso      1.000     O          -0.629001           
         O18       1.0000    0.81510   0.90592   0.45684   Biso      1.000     O          -0.713064           
         O19       1.0000    0.53610   0.61770   0.53740   Biso      1.000     O          -0.772466           
         O20       1.0000    0.53510   0.63994   0.41068   Biso      1.000     O          -0.588547           
         O21       1.0000    0.47200   0.29538   0.23156   Biso      1.000     O          -0.654871           
         O22       1.0000    0.50120   0.43320   0.21220   Biso      1.000     O          -0.6470520000000001           
         O23       1.0000    0.31510   0.55092   0.45684   Biso      1.000     O          -0.712979           
         O24       1.0000    0.37120   0.55430   0.60140   Biso      1.000     O          -0.627551 