
##########################################################################
#               Crystallographic Information Format file
#               Produced by PyCifRW module
#
#  This is a CIF file.  CIF has been adopted by the International
#  Union of Crystallography as the standard for data archiving and
#  transmission.
#
#  For information on this file format, follow the CIF links at
#  http://www.iucr.org
##########################################################################

data_image0

_cell_length_a                          13.0926
_cell_length_b                          14.4488
_cell_length_c                          16.2751
_cell_angle_alpha                       116.353
_cell_angle_beta                        97.8329
_cell_angle_gamma                       90
_symmetry_space_group_name_H-M          'P 1'
_symmetry_int_tables_number             1
loop_
  _symmetry_equiv_pos_as_xyz
         'x, y, z' 
loop_
  _atom_site_label
  _atom_site_occupancy
  _atom_site_fract_x
  _atom_site_fract_y
  _atom_site_fract_z
  _atom_site_thermal_displace_type
  _atom_site_B_iso_or_equiv
  _atom_site_type_symbol
  _atom_site_charge
         C1        1.0000    0.83870   0.71170   0.28360   Biso      1.000     C          0.221531  
         C2        1.0000    0.37960   0.35380   0.06380   Biso      1.000     C          0.082242  
         C3        1.0000    0.41130   0.39450   0.00600   Biso      1.000     C          -0.12442  
         C4        1.0000    0.44250   0.32760   0.92340   Biso      1.000     C          -0.100993           
         C5        1.0000    0.44170   0.22300   0.89460   Biso      1.000     C          -0.0013289999999999999        
         C6        1.0000    0.47750   0.15350   0.80680   Biso      1.000     C          0.582199  
         C7        1.0000    0.68090   0.90620   0.45200   Biso      1.000     C          0.674032  
         C8        1.0000    0.81330   0.78930   0.46920   Biso      1.000     C          -0.129651           
         C9        1.0000    0.75750   0.82740   0.41360   Biso      1.000     C          -0.010554000000000001         
         C10       1.0000    0.76930   0.78890   0.32140   Biso      1.000     C          -0.188162           
         C11       1.0000    0.88910   0.66960   0.33940   Biso      1.000     C          -0.189879           
         C12       1.0000    0.87840   0.71180   0.43260   Biso      1.000     C          -0.009913           
         C13       1.0000    0.93280   0.66640   0.49400   Biso      1.000     C          0.648302  
         C14       1.0000    0.85470   0.73370   0.15620   Biso      1.000     C          0.05314   
         C15       1.0000    0.90990   0.76790   0.95060   Biso      1.000     C          -0.105475           
         C16       1.0000    0.88010   0.78690   0.03500   Biso      1.000     C          -0.1512   
         C17       1.0000    0.87960   0.71000   0.06380   Biso      1.000     C          0.08189500000000001           
         C18       1.0000    0.91130   0.61150   0.00600   Biso      1.000     C          -0.12673800000000002          
         C19       1.0000    0.94250   0.59580   0.92340   Biso      1.000     C          -0.100036           
         C20       1.0000    0.94170   0.67160   0.89460   Biso      1.000     C          -0.001511           
         C21       1.0000    0.97750   0.65330   0.80680   Biso      1.000     C          0.5828760000000001  
         C22       1.0000    0.81910   0.45420   0.54800   Biso      1.000     C          0.672864  
         C23       1.0000    0.38010   0.24810   0.03500   Biso      1.000     C          -0.152272           
         C24       1.0000    0.68670   0.32010   0.53080   Biso      1.000     C          -0.130071           
         C25       1.0000    0.40990   0.18270   0.95060   Biso      1.000     C          -0.10456199999999999          
         C26       1.0000    0.43280   0.82760   0.49400   Biso      1.000     C          0.647195  
         C27       1.0000    0.24250   0.17260   0.58640   Biso      1.000     C          -0.010555           
         C28       1.0000    0.23070   0.21110   0.67860   Biso      1.000     C          -0.188161           
         C29       1.0000    0.16130   0.28830   0.71640   Biso      1.000     C          0.221531  
         C30       1.0000    0.11090   0.33040   0.66060   Biso      1.000     C          -0.189878           
         C31       1.0000    0.12160   0.28820   0.56740   Biso      1.000     C          -0.009918000000000001         
         C32       1.0000    0.06720   0.33360   0.50600   Biso      1.000     C          0.648303  
         C33       1.0000    0.14530   0.26630   0.84380   Biso      1.000     C          0.05314   
         C34       1.0000    0.09010   0.23210   0.04940   Biso      1.000     C          -0.105475           
         C35       1.0000    0.11990   0.21310   0.96500   Biso      1.000     C          -0.1512   
         C36       1.0000    0.12040   0.29000   0.93620   Biso      1.000     C          0.08189500000000001           
         C37       1.0000    0.08870   0.38850   0.99400   Biso      1.000     C          -0.12673800000000002          
         C38       1.0000    0.05750   0.40420   0.07660   Biso      1.000     C          -0.100036           
         C39       1.0000    0.05830   0.32840   0.10540   Biso      1.000     C          -0.001511           
         C40       1.0000    0.02250   0.34670   0.19320   Biso      1.000     C          0.5828760000000001  
         C41       1.0000    0.18090   0.54580   0.45200   Biso      1.000     C          0.672864  
         C42       1.0000    0.31330   0.67990   0.46920   Biso      1.000     C          -0.130071           
         C43       1.0000    0.25750   0.58620   0.41360   Biso      1.000     C          -0.009247           
         C44       1.0000    0.26930   0.53250   0.32140   Biso      1.000     C          -0.188472           
         C45       1.0000    0.33870   0.57190   0.28360   Biso      1.000     C          0.221885  
         C46       1.0000    0.38910   0.66980   0.33940   Biso      1.000     C          -0.190698           
         C47       1.0000    0.37840   0.72080   0.43260   Biso      1.000     C          -0.010006999999999999         
         C48       1.0000    0.35470   0.42250   0.15620   Biso      1.000     C          0.054372000000000004          
         C49       1.0000    0.18670   0.21070   0.53080   Biso      1.000     C          -0.129645           
         C50       1.0000    0.74250   0.41380   0.58640   Biso      1.000     C          -0.009247           
         C51       1.0000    0.66130   0.42810   0.71640   Biso      1.000     C          0.221885  
         C52       1.0000    0.73070   0.46750   0.67860   Biso      1.000     C          -0.188472           
         C53       1.0000    0.52250   0.84650   0.19320   Biso      1.000     C          0.582199  
         C54       1.0000    0.55830   0.77700   0.10540   Biso      1.000     C          -0.001328           
         C55       1.0000    0.55750   0.67240   0.07660   Biso      1.000     C          -0.100996           
         C56       1.0000    0.58870   0.60550   0.99400   Biso      1.000     C          -0.12441600000000001          
         C57       1.0000    0.62040   0.64620   0.93620   Biso      1.000     C          0.082242  
         C58       1.0000    0.31910   0.09380   0.54800   Biso      1.000     C          0.674032  
         C59       1.0000    0.59010   0.81730   0.04940   Biso      1.000     C          -0.10456199999999999          
         C60       1.0000    0.61090   0.33020   0.66060   Biso      1.000     C          -0.190698           
         C61       1.0000    0.62160   0.27920   0.56740   Biso      1.000     C          -0.010006999999999999         
         C62       1.0000    0.61990   0.75190   0.96500   Biso      1.000     C          -0.152273           
         C63       1.0000    0.64530   0.57750   0.84380   Biso      1.000     C          0.054372000000000004          
         C64       1.0000    0.56720   0.17240   0.50600   Biso      1.000     C          0.647195  
         H1        1.0000    0.53510   0.64540   0.11380   Biso      1.000     H          0.11926300000000001           
         H2        1.0000    0.73140   0.81410   0.28400   Biso      1.000     H          0.133438  
         H3        1.0000    0.92950   0.61370   0.31420   Biso      1.000     H          0.140105  
         H4        1.0000    0.90850   0.81990   0.93160   Biso      1.000     H          0.12259400000000001           
         H5        1.0000    0.86030   0.85220   0.07280   Biso      1.000     H          0.116612  
         H6        1.0000    0.91120   0.55820   0.02340   Biso      1.000     H          0.12154000000000001           
         H7        1.0000    0.96490   0.53160   0.88620   Biso      1.000     H          0.119332  
         H8        1.0000    0.80680   0.81640   0.53160   Biso      1.000     H          0.130674  
         H9        1.0000    0.76860   0.53010   0.71600   Biso      1.000     H          0.132695  
         H10       1.0000    0.57050   0.29950   0.68580   Biso      1.000     H          0.14063499999999998           
         H11       1.0000    0.59150   0.88830   0.06840   Biso      1.000     H          0.12231600000000001           
         H12       1.0000    0.63970   0.77940   0.92720   Biso      1.000     H          0.116754  
         H13       1.0000    0.58880   0.53480   0.97660   Biso      1.000     H          0.120254  
         H14       1.0000    0.66000   0.61200   0.81600   Biso      1.000     H          0.082949  
         H15       1.0000    0.69320   0.28480   0.46840   Biso      1.000     H          0.130904  
         H16       1.0000    0.46490   0.35460   0.88620   Biso      1.000     H          0.11926300000000001           
         H17       1.0000    0.41120   0.46520   0.02340   Biso      1.000     H          0.120254  
         H18       1.0000    0.16000   0.20400   0.81600   Biso      1.000     H          0.083553  
         H19       1.0000    0.19320   0.18360   0.46840   Biso      1.000     H          0.130673  
         H20       1.0000    0.26860   0.18590   0.71600   Biso      1.000     H          0.133438  
         H21       1.0000    0.07050   0.38630   0.68580   Biso      1.000     H          0.140105  
         H22       1.0000    0.84000   0.79600   0.18400   Biso      1.000     H          0.083553  
         H23       1.0000    0.13970   0.14780   0.92720   Biso      1.000     H          0.116612  
         H24       1.0000    0.09150   0.18010   0.06840   Biso      1.000     H          0.12259400000000001           
         H25       1.0000    0.03510   0.46840   0.11380   Biso      1.000     H          0.119332  
         H26       1.0000    0.34000   0.38800   0.18400   Biso      1.000     H          0.082949  
         H27       1.0000    0.30680   0.71520   0.53160   Biso      1.000     H          0.130904  
         H28       1.0000    0.23140   0.46990   0.28400   Biso      1.000     H          0.132695  
         H29       1.0000    0.40850   0.11170   0.93160   Biso      1.000     H          0.12231600000000001           
         H30       1.0000    0.36030   0.22060   0.07280   Biso      1.000     H          0.116754  
         H31       1.0000    0.08880   0.44180   0.97660   Biso      1.000     H          0.12154000000000001           
         H32       1.0000    0.42950   0.70050   0.31420   Biso      1.000     H          0.14063499999999998           
         N1        1.0000    0.64230   0.48304   0.80888   Biso      1.000     N          -0.264364           
         N2        1.0000    0.85770   0.67416   0.19112   Biso      1.000     N          -0.26371300000000003          
         N3        1.0000    0.35770   0.51696   0.19112   Biso      1.000     N          -0.264364           
         N4        1.0000    0.14230   0.32584   0.80888   Biso      1.000     N          -0.26371300000000003          
         Nd1       1.0000    0.45587   0.97657   0.36782   Biso      1.000     Nd          2.076899  
         Nd2       1.0000    0.95587   0.39125   0.36782   Biso      1.000     Nd          2.077313  
         Nd3       1.0000    0.54413   0.02343   0.63218   Biso      1.000     Nd          2.076899  
         Nd4       1.0000    0.04413   0.60875   0.63218   Biso      1.000     Nd          2.077313  
         O1        1.0000    0.04730   0.27532   0.42084   Biso      1.000     O          -0.6086050000000001           
         O2        1.0000    0.04280   0.42558   0.54116   Biso      1.000     O          -0.7481760000000001           
         O3        1.0000    0.03960   0.28154   0.22588   Biso      1.000     O          -0.660012           
         O4        1.0000    0.97340   0.42484   0.23328   Biso      1.000     O          -0.661158           
         O5        1.0000    0.13160   0.46015   0.39850   Biso      1.000     O          -0.641718           
         O6        1.0000    0.17010   0.59868   0.53516   Biso      1.000     O          -0.709498           
         O7        1.0000    0.45270   0.85448   0.57916   Biso      1.000     O          -0.607693           
         O8        1.0000    0.45720   0.88442   0.45884   Biso      1.000     O          -0.747479           
         O9        1.0000    0.46040   0.05566   0.77412   Biso      1.000     O          -0.6598470000000001           
         O10       1.0000    0.52660   0.19156   0.76672   Biso      1.000     O          -0.660629           
         O11       1.0000    0.63160   0.93835   0.39850   Biso      1.000     O          -0.642253           
         O12       1.0000    0.67010   0.93648   0.53516   Biso      1.000     O          -0.71003  
         O13       1.0000    0.95270   0.72468   0.57916   Biso      1.000     O          -0.6086050000000001           
         O14       1.0000    0.95720   0.57442   0.45884   Biso      1.000     O          -0.7481760000000001           
         O15       1.0000    0.96040   0.71846   0.77412   Biso      1.000     O          -0.660012           
         O16       1.0000    0.02660   0.57516   0.76672   Biso      1.000     O          -0.661158           
         O17       1.0000    0.86840   0.53985   0.60150   Biso      1.000     O          -0.641718           
         O18       1.0000    0.82990   0.40132   0.46484   Biso      1.000     O          -0.709498           
         O19       1.0000    0.54730   0.14552   0.42084   Biso      1.000     O          -0.607693           
         O20       1.0000    0.54280   0.11558   0.54116   Biso      1.000     O          -0.747479           
         O21       1.0000    0.53960   0.94434   0.22588   Biso      1.000     O          -0.6598470000000001           
         O22       1.0000    0.47340   0.80844   0.23328   Biso      1.000     O          -0.660629           
         O23       1.0000    0.32990   0.06352   0.46484   Biso      1.000     O          -0.71003  
         O24       1.0000    0.36840   0.06165   0.60150   Biso      1.000     O          -0.642253 