
##########################################################################
#               Crystallographic Information Format file
#               Produced by PyCifRW module
#
#  This is a CIF file.  CIF has been adopted by the International
#  Union of Crystallography as the standard for data archiving and
#  transmission.
#
#  For information on this file format, follow the CIF links at
#  http://www.iucr.org
##########################################################################

data_image0

_cell_length_a                          13.645
_cell_length_b                          14.2731
_cell_length_c                          16.1135
_cell_angle_alpha                       116.289
_cell_angle_beta                        99.0059
_cell_angle_gamma                       90
_symmetry_space_group_name_H-M          'P 1'
_symmetry_int_tables_number             1
loop_
  _symmetry_equiv_pos_as_xyz
         'x, y, z' 
loop_
  _atom_site_label
  _atom_site_occupancy
  _atom_site_fract_x
  _atom_site_fract_y
  _atom_site_fract_z
  _atom_site_thermal_displace_type
  _atom_site_B_iso_or_equiv
  _atom_site_type_symbol
  _atom_site_charge
         C1        1.0000    0.66920   0.28150   0.70980   Biso      1.000     C          0.225162  
         C2        1.0000    0.12050   0.64680   0.93260   Biso      1.000     C          0.07948999999999999           
         C3        1.0000    0.11060   0.74800   0.95900   Biso      1.000     C          -0.15118199999999998          
         C4        1.0000    0.08350   0.80990   0.04460   Biso      1.000     C          -0.099781           
         C5        1.0000    0.05760   0.76750   0.10140   Biso      1.000     C          -0.011906           
         C6        1.0000    0.02100   0.83510   0.19060   Biso      1.000     C          0.5871430000000001  
         C7        1.0000    0.82120   0.09110   0.54320   Biso      1.000     C          0.670297  
         C8        1.0000    0.69240   0.20710   0.52360   Biso      1.000     C          -0.119351           
         C9        1.0000    0.74780   0.16820   0.57900   Biso      1.000     C          -0.010221           
         C10       1.0000    0.73670   0.20820   0.67360   Biso      1.000     C          -0.1833   
         C11       1.0000    0.61880   0.32450   0.65540   Biso      1.000     C          -0.187475           
         C12       1.0000    0.62710   0.28500   0.56020   Biso      1.000     C          -0.019041           
         C13       1.0000    0.57070   0.32810   0.49980   Biso      1.000     C          0.64227   
         C14       1.0000    0.64520   0.25740   0.83700   Biso      1.000     C          0.07295   
         C15       1.0000    0.56490   0.40900   0.07240   Biso      1.000     C          -0.09921  
         C16       1.0000    0.59510   0.38620   0.98700   Biso      1.000     C          -0.127609           
         C17       1.0000    0.62050   0.28580   0.93260   Biso      1.000     C          0.077873  
         C18       1.0000    0.61060   0.21100   0.95900   Biso      1.000     C          -0.150051           
         C19       1.0000    0.58350   0.23470   0.04460   Biso      1.000     C          -0.101739           
         C20       1.0000    0.55760   0.33390   0.10140   Biso      1.000     C          -0.011559999999999999         
         C21       1.0000    0.52100   0.35550   0.19060   Biso      1.000     C          0.5878869999999999  
         C22       1.0000    0.67880   0.54790   0.45680   Biso      1.000     C          0.670941  
         C23       1.0000    0.09510   0.60080   0.98700   Biso      1.000     C          -0.12805  
         C24       1.0000    0.80760   0.68350   0.47640   Biso      1.000     C          -0.12076600000000001          
         C25       1.0000    0.06490   0.66340   0.07240   Biso      1.000     C          -0.097865           
         C26       1.0000    0.07070   0.17170   0.49980   Biso      1.000     C          0.640562  
         C27       1.0000    0.25220   0.83180   0.42100   Biso      1.000     C          -0.010222           
         C28       1.0000    0.26330   0.79180   0.32640   Biso      1.000     C          -0.183302           
         C29       1.0000    0.33080   0.71850   0.29020   Biso      1.000     C          0.22516399999999998           
         C30       1.0000    0.38120   0.67550   0.34460   Biso      1.000     C          -0.187475           
         C31       1.0000    0.37290   0.71500   0.43980   Biso      1.000     C          -0.019041           
         C32       1.0000    0.42930   0.67190   0.50020   Biso      1.000     C          0.64227   
         C33       1.0000    0.35480   0.74260   0.16300   Biso      1.000     C          0.07295   
         C34       1.0000    0.43510   0.59100   0.92760   Biso      1.000     C          -0.09921  
         C35       1.0000    0.40490   0.61380   0.01300   Biso      1.000     C          -0.127609           
         C36       1.0000    0.37950   0.71420   0.06740   Biso      1.000     C          0.077872  
         C37       1.0000    0.38940   0.78900   0.04100   Biso      1.000     C          -0.150051           
         C38       1.0000    0.41650   0.76530   0.95540   Biso      1.000     C          -0.101739           
         C39       1.0000    0.44240   0.66610   0.89860   Biso      1.000     C          -0.011559999999999999         
         C40       1.0000    0.47900   0.64450   0.80940   Biso      1.000     C          0.5878869999999999  
         C41       1.0000    0.32120   0.45210   0.54320   Biso      1.000     C          0.670941  
         C42       1.0000    0.19240   0.31650   0.52360   Biso      1.000     C          -0.12076600000000001          
         C43       1.0000    0.24780   0.41080   0.57900   Biso      1.000     C          -0.010626           
         C44       1.0000    0.23670   0.46540   0.67360   Biso      1.000     C          -0.18427000000000002          
         C45       1.0000    0.16920   0.42830   0.70980   Biso      1.000     C          0.22608699999999998           
         C46       1.0000    0.11880   0.33090   0.65540   Biso      1.000     C          -0.187381           
         C47       1.0000    0.12710   0.27520   0.56020   Biso      1.000     C          -0.017455000000000002         
         C48       1.0000    0.14520   0.57960   0.83700   Biso      1.000     C          0.072653  
         C49       1.0000    0.30760   0.79290   0.47640   Biso      1.000     C          -0.119349           
         C50       1.0000    0.75220   0.58920   0.42100   Biso      1.000     C          -0.010626           
         C51       1.0000    0.83080   0.57170   0.29020   Biso      1.000     C          0.22608699999999998           
         C52       1.0000    0.76330   0.53460   0.32640   Biso      1.000     C          -0.18427000000000002          
         C53       1.0000    0.97900   0.16490   0.80940   Biso      1.000     C          0.5871430000000001  
         C54       1.0000    0.94240   0.23250   0.89860   Biso      1.000     C          -0.011907           
         C55       1.0000    0.91650   0.19010   0.95540   Biso      1.000     C          -0.099777           
         C56       1.0000    0.88940   0.25200   0.04100   Biso      1.000     C          -0.15121700000000002          
         C57       1.0000    0.87950   0.35320   0.06740   Biso      1.000     C          0.079524  
         C58       1.0000    0.17880   0.90890   0.45680   Biso      1.000     C          0.670297  
         C59       1.0000    0.93510   0.33660   0.92760   Biso      1.000     C          -0.09786399999999999          
         C60       1.0000    0.88120   0.66910   0.34460   Biso      1.000     C          -0.187381           
         C61       1.0000    0.87290   0.72480   0.43980   Biso      1.000     C          -0.017455000000000002         
         C62       1.0000    0.90490   0.39920   0.01300   Biso      1.000     C          -0.128054           
         C63       1.0000    0.85480   0.42040   0.16300   Biso      1.000     C          0.072651  
         C64       1.0000    0.92930   0.82830   0.50020   Biso      1.000     C          0.640562  
         H1        1.0000    0.91730   0.11820   0.93520   Biso      1.000     H          0.115907  
         H2        1.0000    0.57930   0.37960   0.68160   Biso      1.000     H          0.140375  
         H3        1.0000    0.61300   0.18600   0.80200   Biso      1.000     H          0.070133  
         H4        1.0000    0.54970   0.47670   0.11000   Biso      1.000     H          0.121181  
         H5        1.0000    0.59810   0.43780   0.96680   Biso      1.000     H          0.11756400000000002           
         H6        1.0000    0.62190   0.14250   0.91980   Biso      1.000     H          0.114381  
         H7        1.0000    0.58270   0.18300   0.06480   Biso      1.000     H          0.11700999999999999           
         H8        1.0000    0.77540   0.18500   0.71260   Biso      1.000     H          0.129743  
         H9        1.0000    0.92070   0.69800   0.31840   Biso      1.000     H          0.139983  
         H10       1.0000    0.88700   0.38400   0.19800   Biso      1.000     H          0.070439  
         H11       1.0000    0.95030   0.36670   0.89000   Biso      1.000     H          0.120493  
         H12       1.0000    0.90190   0.47100   0.03320   Biso      1.000     H          0.11648499999999999           
         H13       1.0000    0.87810   0.22270   0.08020   Biso      1.000     H          0.11463399999999999           
         H14       1.0000    0.80160   0.72040   0.53940   Biso      1.000     H          0.128888  
         H15       1.0000    0.72460   0.47240   0.28740   Biso      1.000     H          0.13025699999999998           
         H16       1.0000    0.08270   0.88180   0.06480   Biso      1.000     H          0.115907  
         H17       1.0000    0.12190   0.77730   0.91980   Biso      1.000     H          0.114631  
         H18       1.0000    0.30160   0.81900   0.53940   Biso      1.000     H          0.129084  
         H19       1.0000    0.22460   0.81500   0.28740   Biso      1.000     H          0.129743  
         H20       1.0000    0.42070   0.62040   0.31840   Biso      1.000     H          0.140375  
         H21       1.0000    0.38700   0.81400   0.19800   Biso      1.000     H          0.070133  
         H22       1.0000    0.69840   0.18100   0.46060   Biso      1.000     H          0.129084  
         H23       1.0000    0.40190   0.56220   0.03320   Biso      1.000     H          0.11756400000000002           
         H24       1.0000    0.45030   0.52330   0.89000   Biso      1.000     H          0.121181  
         H25       1.0000    0.41730   0.81700   0.93520   Biso      1.000     H          0.11700999999999999           
         H26       1.0000    0.19840   0.27960   0.46060   Biso      1.000     H          0.128888  
         H27       1.0000    0.27540   0.52760   0.71260   Biso      1.000     H          0.13025699999999998           
         H28       1.0000    0.07930   0.30200   0.68160   Biso      1.000     H          0.139983  
         H29       1.0000    0.04970   0.63330   0.11000   Biso      1.000     H          0.120493  
         H30       1.0000    0.09810   0.52900   0.96680   Biso      1.000     H          0.11648499999999999           
         H31       1.0000    0.37810   0.85750   0.08020   Biso      1.000     H          0.114381  
         H32       1.0000    0.11300   0.61600   0.80200   Biso      1.000     H          0.070439  
         N1        1.0000    0.85090   0.51560   0.19700   Biso      1.000     N          -0.25347  
         N2        1.0000    0.64910   0.31860   0.80300   Biso      1.000     N          -0.253154           
         N3        1.0000    0.14910   0.48440   0.80300   Biso      1.000     N          -0.25347  
         N4        1.0000    0.35090   0.68140   0.19700   Biso      1.000     N          -0.253154           
         Nd1       1.0000    0.04339   0.03041   0.63589   Biso      1.000     Nd          2.073532  
         Nd2       1.0000    0.54339   0.60548   0.63589   Biso      1.000     Nd          2.075447  
         Nd3       1.0000    0.95661   0.96959   0.36411   Biso      1.000     Nd          2.0735330000000003  
         Nd4       1.0000    0.45661   0.39452   0.36411   Biso      1.000     Nd          2.075447  
         O1        1.0000    0.46080   0.58059   0.46358   Biso      1.000     O          -0.759402           
         O2        1.0000    0.44800   0.72808   0.58836   Biso      1.000     O          -0.602695           
         O3        1.0000    0.50630   0.55324   0.76168   Biso      1.000     O          -0.6610010000000001           
         O4        1.0000    0.48280   0.71480   0.78440   Biso      1.000     O          -0.649303           
         O5        1.0000    0.37140   0.53817   0.59774   Biso      1.000     O          -0.6348239999999999           
         O6        1.0000    0.33080   0.39711   0.45722   Biso      1.000     O          -0.721618           
         O7        1.0000    0.03920   0.11701   0.53642   Biso      1.000     O          -0.757406           
         O8        1.0000    0.05200   0.13972   0.41164   Biso      1.000     O          -0.602079           
         O9        1.0000    0.99370   0.79156   0.23832   Biso      1.000     O          -0.660032           
         O10       1.0000    0.01720   0.93040   0.21560   Biso      1.000     O          -0.649342           
         O11       1.0000    0.87140   0.05957   0.59774   Biso      1.000     O          -0.634554           
         O12       1.0000    0.83080   0.06011   0.45722   Biso      1.000     O          -0.721129           
         O13       1.0000    0.53920   0.41941   0.53642   Biso      1.000     O          -0.759402           
         O14       1.0000    0.55200   0.27192   0.41164   Biso      1.000     O          -0.602695           
         O15       1.0000    0.49370   0.44676   0.23832   Biso      1.000     O          -0.6610010000000001           
         O16       1.0000    0.51720   0.28520   0.21560   Biso      1.000     O          -0.649303           
         O17       1.0000    0.62860   0.46183   0.40226   Biso      1.000     O          -0.6348239999999999           
         O18       1.0000    0.66920   0.60289   0.54278   Biso      1.000     O          -0.721618           
         O19       1.0000    0.96080   0.88299   0.46358   Biso      1.000     O          -0.757406           
         O20       1.0000    0.94800   0.86028   0.58836   Biso      1.000     O          -0.602079           
         O21       1.0000    0.00630   0.20844   0.76168   Biso      1.000     O          -0.660032           
         O22       1.0000    0.98280   0.06960   0.78440   Biso      1.000     O          -0.649343           
         O23       1.0000    0.16920   0.93989   0.54278   Biso      1.000     O          -0.721129           
         O24       1.0000    0.12860   0.94043   0.40226   Biso      1.000     O          -0.634554 