
##########################################################################
#               Crystallographic Information Format file
#               Produced by PyCifRW module
#
#  This is a CIF file.  CIF has been adopted by the International
#  Union of Crystallography as the standard for data archiving and
#  transmission.
#
#  For information on this file format, follow the CIF links at
#  http://www.iucr.org
##########################################################################

data_image0

_cell_length_a                          14.2543
_cell_length_b                          15.4448
_cell_length_c                          15.4448
_cell_angle_alpha                       77.5548
_cell_angle_beta                        90
_cell_angle_gamma                       90
_symmetry_space_group_name_H-M          'P 1'
_symmetry_int_tables_number             1
loop_
  _symmetry_equiv_pos_as_xyz
         'x, y, z' 
loop_
  _atom_site_label
  _atom_site_occupancy
  _atom_site_fract_x
  _atom_site_fract_y
  _atom_site_fract_z
  _atom_site_thermal_displace_type
  _atom_site_B_iso_or_equiv
  _atom_site_type_symbol
  _atom_site_charge
         C1        1.0000    0.05390   0.31670   0.42370   Biso      1.000     C          0.139436  
         C2        1.0000    0.66558   0.81795   0.31039   Biso      1.000     C          -0.195684           
         C3        1.0000    0.57310   0.90743   0.39739   Biso      1.000     C          0.610772  
         C4        1.0000    0.94610   0.68330   0.57630   Biso      1.000     C          0.139431  
         C5        1.0000    0.79960   0.65302   0.77710   Biso      1.000     C          -0.215819           
         C6        1.0000    0.72540   0.68903   0.81329   Biso      1.000     C          0.010853  
         C7        1.0000    0.32440   0.80794   0.30942   Biso      1.000     C          0.115672  
         C8        1.0000    0.68837   0.64394   0.90240   Biso      1.000     C          0.597928  
         C9        1.0000    0.66548   0.87533   0.36865   Biso      1.000     C          0.003427  
         C10       1.0000    0.33452   0.63135   0.12467   Biso      1.000     C          0.003427  
         C11       1.0000    0.42690   0.60261   0.09257   Biso      1.000     C          0.610772  
         C12       1.0000    0.44610   0.81670   0.92370   Biso      1.000     C          0.139436  
         C13       1.0000    0.29960   0.84698   0.72290   Biso      1.000     C          -0.21582  
         C14       1.0000    0.22540   0.81097   0.68671   Biso      1.000     C          0.010853  
         C15       1.0000    0.82440   0.69206   0.19058   Biso      1.000     C          0.115673  
         C16       1.0000    0.18837   0.85606   0.59760   Biso      1.000     C          0.597928  
         C17       1.0000    0.83452   0.86865   0.37533   Biso      1.000     C          0.003427  
         C18       1.0000    0.33442   0.68961   0.18205   Biso      1.000     C          -0.195684           
         C19       1.0000    0.83442   0.81039   0.31795   Biso      1.000     C          -0.195683           
         C20       1.0000    0.31163   0.09760   0.35606   Biso      1.000     C          0.597928  
         C21       1.0000    0.27460   0.18671   0.31097   Biso      1.000     C          0.010847  
         C22       1.0000    0.77460   0.18903   0.31329   Biso      1.000     C          0.010847  
         C23       1.0000    0.17560   0.30794   0.80942   Biso      1.000     C          0.11567   
         C24       1.0000    0.81163   0.14394   0.40240   Biso      1.000     C          0.597928  
         C25       1.0000    0.16548   0.13135   0.62467   Biso      1.000     C          0.003427  
         C26       1.0000    0.16558   0.18961   0.68205   Biso      1.000     C          -0.195684           
         C27       1.0000    0.07310   0.10261   0.59257   Biso      1.000     C          0.610772  
         C28       1.0000    0.55390   0.07630   0.18330   Biso      1.000     C          0.139439  
         C29       1.0000    0.67560   0.69058   0.19206   Biso      1.000     C          0.11567   
         C30       1.0000    0.70040   0.27710   0.15302   Biso      1.000     C          -0.215819           
         C31       1.0000    0.17560   0.80942   0.30794   Biso      1.000     C          0.115669  
         C32       1.0000    0.81163   0.40240   0.14394   Biso      1.000     C          0.597928  
         C33       1.0000    0.16548   0.62467   0.13135   Biso      1.000     C          0.003427  
         C34       1.0000    0.16558   0.68205   0.18961   Biso      1.000     C          -0.195684           
         C35       1.0000    0.07310   0.59257   0.10261   Biso      1.000     C          0.610772  
         C36       1.0000    0.05390   0.42370   0.31670   Biso      1.000     C          0.139439  
         C37       1.0000    0.20040   0.22290   0.34698   Biso      1.000     C          -0.215813           
         C38       1.0000    0.77460   0.31329   0.18903   Biso      1.000     C          0.010853  
         C39       1.0000    0.92690   0.89739   0.40743   Biso      1.000     C          0.610772  
         C40       1.0000    0.57310   0.39739   0.90743   Biso      1.000     C          0.610772  
         C41       1.0000    0.66558   0.31039   0.81795   Biso      1.000     C          -0.195685           
         C42       1.0000    0.75000   0.90065   0.40065   Biso      1.000     C          -0.130742           
         C43       1.0000    0.75000   0.78595   0.28595   Biso      1.000     C          0.179318  
         C44       1.0000    0.25000   0.59935   0.09935   Biso      1.000     C          -0.130742           
         C45       1.0000    0.25000   0.71405   0.21405   Biso      1.000     C          0.179317  
         C46       1.0000    0.25000   0.09935   0.59935   Biso      1.000     C          -0.130743           
         C47       1.0000    0.25000   0.21405   0.71405   Biso      1.000     C          0.179316  
         C48       1.0000    0.75000   0.40065   0.90065   Biso      1.000     C          -0.130745           
         C49       1.0000    0.44610   0.92370   0.81670   Biso      1.000     C          0.139435  
         C50       1.0000    0.75000   0.28595   0.78595   Biso      1.000     C          0.179316  
         C51       1.0000    0.33500   0.80469   0.80469   Biso      1.000     C          0.218097  
         C52       1.0000    0.68420   0.76776   0.76776   Biso      1.000     C          -0.133806           
         C53       1.0000    0.83500   0.69531   0.69531   Biso      1.000     C          0.218097  
         C54       1.0000    0.31580   0.23224   0.23224   Biso      1.000     C          -0.133806           
         C55       1.0000    0.16500   0.30469   0.30469   Biso      1.000     C          0.218096  
         C56       1.0000    0.81580   0.26776   0.26776   Biso      1.000     C          -0.133806           
         C57       1.0000    0.66500   0.19531   0.19531   Biso      1.000     C          0.218097  
         C58       1.0000    0.18420   0.73224   0.73224   Biso      1.000     C          -0.133806           
         C59       1.0000    0.29960   0.72290   0.84698   Biso      1.000     C          -0.215818           
         C60       1.0000    0.22540   0.68671   0.81097   Biso      1.000     C          0.010852  
         C61       1.0000    0.82440   0.19058   0.69206   Biso      1.000     C          0.115672  
         C62       1.0000    0.66548   0.36865   0.87533   Biso      1.000     C          0.003429  
         C63       1.0000    0.31163   0.35606   0.09760   Biso      1.000     C          0.597928  
         C64       1.0000    0.67560   0.19206   0.69058   Biso      1.000     C          0.11567   
         C65       1.0000    0.27460   0.31097   0.18671   Biso      1.000     C          0.010847  
         C66       1.0000    0.20040   0.34698   0.22290   Biso      1.000     C          -0.215811           
         C67       1.0000    0.42690   0.09257   0.60261   Biso      1.000     C          0.610772  
         C68       1.0000    0.33442   0.18205   0.68961   Biso      1.000     C          -0.195682           
         C69       1.0000    0.33452   0.12467   0.63135   Biso      1.000     C          0.003429  
         C70       1.0000    0.68837   0.90240   0.64394   Biso      1.000     C          0.597928  
         C71       1.0000    0.32440   0.30942   0.80794   Biso      1.000     C          0.115673  
         C72       1.0000    0.72540   0.81329   0.68903   Biso      1.000     C          0.010847  
         C73       1.0000    0.79960   0.77710   0.65302   Biso      1.000     C          -0.215812           
         C74       1.0000    0.94610   0.57630   0.68330   Biso      1.000     C          0.139441  
         C75       1.0000    0.92690   0.40743   0.89739   Biso      1.000     C          0.610772  
         C76       1.0000    0.83442   0.31795   0.81039   Biso      1.000     C          -0.195682           
         C77       1.0000    0.83452   0.37533   0.86865   Biso      1.000     C          0.003429  
         C78       1.0000    0.18837   0.59760   0.85606   Biso      1.000     C          0.597928  
         C79       1.0000    0.70040   0.15302   0.27710   Biso      1.000     C          -0.215812           
         C80       1.0000    0.55390   0.18330   0.07630   Biso      1.000     C          0.139434  
         Ca1       1.0000    0.11082   0.96118   0.44042   Biso      1.000     Ca          1.367474  
         Ca2       1.0000    0.61082   0.53882   0.05958   Biso      1.000     Ca          1.367475  
         Ca3       1.0000    0.38918   0.94042   0.46118   Biso      1.000     Ca          1.367475  
         Ca4       1.0000    0.88918   0.55958   0.03882   Biso      1.000     Ca          1.367476  
         Ca5       1.0000    0.88918   0.03882   0.55958   Biso      1.000     Ca          1.367476  
         Ca6       1.0000    0.38918   0.46118   0.94042   Biso      1.000     Ca          1.367476  
         Ca7       1.0000    0.61082   0.05958   0.53882   Biso      1.000     Ca          1.367474  
         Ca8       1.0000    0.11082   0.44042   0.96118   Biso      1.000     Ca          1.367474  
         H1        1.0000    0.36980   0.21050   0.21050   Biso      1.000     H          0.136606  
         H2        1.0000    0.10940   0.69870   0.21190   Biso      1.000     H          0.136165  
         H3        1.0000    0.17380   0.19260   0.39980   Biso      1.000     H          0.127266  
         H4        1.0000    0.61340   0.70210   0.20390   Biso      1.000     H          0.120732  
         H5        1.0000    0.82620   0.60020   0.80740   Biso      1.000     H          0.127267  
         H6        1.0000    0.38660   0.79610   0.29790   Biso      1.000     H          0.120732  
         H7        1.0000    0.89060   0.78810   0.30130   Biso      1.000     H          0.136165  
         H8        1.0000    0.32620   0.89980   0.69260   Biso      1.000     H          0.127267  
         H9        1.0000    0.88660   0.70390   0.20210   Biso      1.000     H          0.120732  
         H10       1.0000    0.11340   0.79790   0.29610   Biso      1.000     H          0.120732  
         H11       1.0000    0.86980   0.28950   0.28950   Biso      1.000     H          0.136606  
         H12       1.0000    0.39060   0.71190   0.19870   Biso      1.000     H          0.136165  
         H13       1.0000    0.67380   0.30740   0.10020   Biso      1.000     H          0.127267  
         H14       1.0000    0.60940   0.80130   0.28810   Biso      1.000     H          0.136165  
         H15       1.0000    0.11340   0.29610   0.79790   Biso      1.000     H          0.120732  
         H16       1.0000    0.63020   0.78950   0.78950   Biso      1.000     H          0.136606  
         H17       1.0000    0.13020   0.71050   0.71050   Biso      1.000     H          0.136606  
         H18       1.0000    0.75000   0.43930   0.93930   Biso      1.000     H          0.125252  
         H19       1.0000    0.25000   0.06070   0.56070   Biso      1.000     H          0.125252  
         H20       1.0000    0.10940   0.21190   0.69870   Biso      1.000     H          0.136165  
         H21       1.0000    0.75000   0.93930   0.43930   Biso      1.000     H          0.125251  
         H22       1.0000    0.32620   0.69260   0.89980   Biso      1.000     H          0.127267  
         H23       1.0000    0.88660   0.20210   0.70390   Biso      1.000     H          0.120732  
         H24       1.0000    0.25000   0.56070   0.06070   Biso      1.000     H          0.125252  
         H25       1.0000    0.82620   0.80740   0.60020   Biso      1.000     H          0.127266  
         H26       1.0000    0.38660   0.29790   0.79610   Biso      1.000     H          0.120732  
         H27       1.0000    0.39060   0.19870   0.71190   Biso      1.000     H          0.136165  
         H28       1.0000    0.17380   0.39980   0.19260   Biso      1.000     H          0.127267  
         H29       1.0000    0.67380   0.10020   0.30740   Biso      1.000     H          0.127266  
         H30       1.0000    0.61340   0.20390   0.70210   Biso      1.000     H          0.120732  
         H31       1.0000    0.60940   0.28810   0.80130   Biso      1.000     H          0.136165  
         H32       1.0000    0.89060   0.30130   0.78810   Biso      1.000     H          0.136165  
         N1        1.0000    0.79824   0.13850   0.64104   Biso      1.000     N          -0.237244           
         N2        1.0000    0.50370   0.94400   0.87680   Biso      1.000     N          -0.183622           
         N3        1.0000    0.75000   0.72595   0.22595   Biso      1.000     N          -0.005433           
         N4        1.0000    0.25000   0.77405   0.27405   Biso      1.000     N          -0.005433           
         N5        1.0000    0.90690   0.65418   0.65418   Biso      1.000     N          -0.078609           
         N6        1.0000    0.75000   0.22595   0.72595   Biso      1.000     N          -0.005433           
         N7        1.0000    0.40690   0.84582   0.84582   Biso      1.000     N          -0.078608           
         N8        1.0000    0.09310   0.34582   0.34582   Biso      1.000     N          -0.07861  
         N9        1.0000    0.00370   0.55600   0.62320   Biso      1.000     N          -0.183626           
         N10       1.0000    0.59310   0.15418   0.15418   Biso      1.000     N          -0.07861  
         N11       1.0000    0.25000   0.27405   0.77405   Biso      1.000     N          -0.005433           
         N12       1.0000    0.29824   0.36150   0.85896   Biso      1.000     N          -0.237244           
         N13       1.0000    0.20176   0.35896   0.86150   Biso      1.000     N          -0.237221           
         N14       1.0000    0.70176   0.14104   0.63850   Biso      1.000     N          -0.237221           
         N15       1.0000    0.99630   0.37680   0.44400   Biso      1.000     N          -0.183621           
         N16       1.0000    0.79824   0.64104   0.13850   Biso      1.000     N          -0.237244           
         N17       1.0000    0.29824   0.85896   0.36150   Biso      1.000     N          -0.237244           
         N18       1.0000    0.00370   0.62320   0.55600   Biso      1.000     N          -0.183564           
         N19       1.0000    0.50370   0.87680   0.94400   Biso      1.000     N          -0.183569           
         N20       1.0000    0.99630   0.44400   0.37680   Biso      1.000     N          -0.183572           
         N21       1.0000    0.20176   0.86150   0.35896   Biso      1.000     N          -0.237221           
         N22       1.0000    0.49630   0.05600   0.12320   Biso      1.000     N          -0.183624           
         N23       1.0000    0.49630   0.12320   0.05600   Biso      1.000     N          -0.183567           
         N24       1.0000    0.70176   0.63850   0.14104   Biso      1.000     N          -0.237221           
         O1        1.0000    0.39753   0.34924   0.08030   Biso      1.000     O          -0.59839  
         O2        1.0000    0.89753   0.15076   0.41970   Biso      1.000     O          -0.59839  
         O3        1.0000    0.99979   0.12650   0.62354   Biso      1.000     O          -0.609862           
         O4        1.0000    0.07366   0.05595   0.53493   Biso      1.000     O          -0.670526           
         O5        1.0000    0.25457   0.39998   0.04280   Biso      1.000     O          -0.673959           
         O6        1.0000    0.49979   0.37350   0.87646   Biso      1.000     O          -0.609862           
         O7        1.0000    0.42634   0.03493   0.55595   Biso      1.000     O          -0.670526           
         O8        1.0000    0.74543   0.95720   0.60002   Biso      1.000     O          -0.673959           
         O9        1.0000    0.60247   0.91970   0.65076   Biso      1.000     O          -0.59839  
         O10       1.0000    0.50021   0.12354   0.62650   Biso      1.000     O          -0.609862           
         O11       1.0000    0.75457   0.10002   0.45720   Biso      1.000     O          -0.673958           
         O12       1.0000    0.24543   0.54280   0.89998   Biso      1.000     O          -0.673958           
         O13       1.0000    0.10247   0.58030   0.84924   Biso      1.000     O          -0.59839  
         O14       1.0000    0.57366   0.44405   0.96507   Biso      1.000     O          -0.670526           
         O15       1.0000    0.07366   0.53493   0.05595   Biso      1.000     O          -0.670526           
         O16       1.0000    0.49979   0.87646   0.37350   Biso      1.000     O          -0.609861           
         O17       1.0000    0.89753   0.41970   0.15076   Biso      1.000     O          -0.59839  
         O18       1.0000    0.75457   0.45720   0.10002   Biso      1.000     O          -0.673958           
         O19       1.0000    0.57366   0.96507   0.44405   Biso      1.000     O          -0.670526           
         O20       1.0000    0.39753   0.08030   0.34924   Biso      1.000     O          -0.59839  
         O21       1.0000    0.25457   0.04280   0.39998   Biso      1.000     O          -0.673958           
         O22       1.0000    0.42634   0.55595   0.03493   Biso      1.000     O          -0.670526           
         O23       1.0000    0.50021   0.62650   0.12354   Biso      1.000     O          -0.609862           
         O24       1.0000    0.60247   0.65076   0.91970   Biso      1.000     O          -0.59839  
         O25       1.0000    0.74543   0.60002   0.95720   Biso      1.000     O          -0.673958           
         O26       1.0000    0.92634   0.94405   0.46507   Biso      1.000     O          -0.670526           
         O27       1.0000    0.00021   0.87350   0.37646   Biso      1.000     O          -0.609862           
         O28       1.0000    0.10247   0.84924   0.58030   Biso      1.000     O          -0.59839  
         O29       1.0000    0.24543   0.89998   0.54280   Biso      1.000     O          -0.673958           
         O30       1.0000    0.00021   0.37646   0.87350   Biso      1.000     O          -0.609862           
         O31       1.0000    0.99979   0.62354   0.12650   Biso      1.000     O          -0.609862           
         O32       1.0000    0.92634   0.46507   0.94405   Biso      1.000     O          -0.670526 