
##########################################################################
#               Crystallographic Information Format file
#               Produced by PyCifRW module
#
#  This is a CIF file.  CIF has been adopted by the International
#  Union of Crystallography as the standard for data archiving and
#  transmission.
#
#  For information on this file format, follow the CIF links at
#  http://www.iucr.org
##########################################################################

data_image0

_cell_length_a                          9.4514
_cell_length_b                          16.189
_cell_length_c                          23.983
_cell_angle_alpha                       108.098
_cell_angle_beta                        90
_cell_angle_gamma                       90
_symmetry_space_group_name_H-M          'P 1'
_symmetry_int_tables_number             1
loop_
  _symmetry_equiv_pos_as_xyz
         'x, y, z' 
loop_
  _atom_site_label
  _atom_site_occupancy
  _atom_site_fract_x
  _atom_site_fract_y
  _atom_site_fract_z
  _atom_site_thermal_displace_type
  _atom_site_B_iso_or_equiv
  _atom_site_type_symbol
  _atom_site_charge
         C1        1.0000    0.29240   0.36260   0.21530   Biso      1.000     C          0.5876020000000001  
         C2        1.0000    0.57850   0.96540   0.05710   Biso      1.000     C          -0.14771199999999998          
         C3        1.0000    0.47440   0.97060   0.09850   Biso      1.000     C          -0.013393           
         C4        1.0000    0.38160   0.90150   0.09030   Biso      1.000     C          -0.15942699999999999          
         C5        1.0000    0.39250   0.83110   0.04020   Biso      1.000     C          0.11011900000000001           
         C6        1.0000    0.29920   0.75330   0.02660   Biso      1.000     C          0.518336  
         C7        1.0000    0.29360   0.52960   0.83771   Biso      1.000     C          0.577176  
         C8        1.0000    0.39260   0.49080   0.87140   Biso      1.000     C          0.11467000000000001           
         C9        1.0000    0.38360   0.40660   0.87340   Biso      1.000     C          -0.144046           
         C10       1.0000    0.58320   0.89330   0.00820   Biso      1.000     C          0.107418  
         C11       1.0000    0.47880   0.37890   0.90740   Biso      1.000     C          -0.013012000000000001         
         C12       1.0000    0.58450   0.51770   0.93458   Biso      1.000     C          0.097052  
         C13       1.0000    0.68920   0.58570   0.96757   Biso      1.000     C          0.614298  
         C14       1.0000    0.70760   0.63740   0.78470   Biso      1.000     C          0.587594  
         C15       1.0000    0.61730   0.70430   0.76930   Biso      1.000     C          0.126437  
         C16       1.0000    0.64360   0.73260   0.72170   Biso      1.000     C          -0.135946           
         C17       1.0000    0.55780   0.79520   0.71230   Biso      1.000     C          -0.035962           
         C18       1.0000    0.44680   0.82830   0.75000   Biso      1.000     C          -0.15246300000000002          
         C19       1.0000    0.42800   0.79810   0.79670   Biso      1.000     C          0.119448  
         C20       1.0000    0.58160   0.43450   0.93800   Biso      1.000     C          -0.148612           
         C21       1.0000    0.68970   0.88270   0.96010   Biso      1.000     C          0.616618  
         C22       1.0000    0.31440   0.16740   0.65760   Biso      1.000     C          0.520089  
         C23       1.0000    0.42800   0.20190   0.70330   Biso      1.000     C          0.11944   
         C24       1.0000    0.68970   0.11730   0.53990   Biso      1.000     C          0.6166149999999999  
         C25       1.0000    0.58320   0.10670   0.49180   Biso      1.000     C          0.10741400000000001           
         C26       1.0000    0.57850   0.03460   0.44290   Biso      1.000     C          -0.14771099999999998          
         C27       1.0000    0.47440   0.02940   0.40150   Biso      1.000     C          -0.013396000000000002         
         C28       1.0000    0.38160   0.09850   0.40970   Biso      1.000     C          -0.159429           
         C29       1.0000    0.39250   0.16890   0.45980   Biso      1.000     C          0.11011199999999999           
         C30       1.0000    0.29920   0.24670   0.47340   Biso      1.000     C          0.518335  
         C31       1.0000    0.29360   0.47040   0.66229   Biso      1.000     C          0.577177  
         C32       1.0000    0.39260   0.50920   0.62860   Biso      1.000     C          0.11467100000000001           
         C33       1.0000    0.38360   0.59340   0.62660   Biso      1.000     C          -0.144045           
         C34       1.0000    0.47880   0.62110   0.59260   Biso      1.000     C          -0.013008           
         C35       1.0000    0.58160   0.56550   0.56200   Biso      1.000     C          -0.148612           
         C36       1.0000    0.58450   0.48230   0.56542   Biso      1.000     C          0.097053  
         C37       1.0000    0.68920   0.41430   0.53243   Biso      1.000     C          0.614301  
         C38       1.0000    0.70760   0.36260   0.71530   Biso      1.000     C          0.587601  
         C39       1.0000    0.61730   0.29570   0.73070   Biso      1.000     C          0.12643   
         C40       1.0000    0.64360   0.26740   0.77830   Biso      1.000     C          -0.135945           
         C41       1.0000    0.55780   0.20480   0.78770   Biso      1.000     C          -0.035963999999999996         
         C42       1.0000    0.44680   0.17170   0.75000   Biso      1.000     C          -0.15245899999999998          
         C43       1.0000    0.31440   0.83260   0.84240   Biso      1.000     C          0.520089  
         C44       1.0000    0.55320   0.17170   0.25000   Biso      1.000     C          -0.15246800000000002          
         C45       1.0000    0.44220   0.20480   0.28770   Biso      1.000     C          -0.035966000000000005         
         C46       1.0000    0.35640   0.26740   0.27830   Biso      1.000     C          -0.135941           
         C47       1.0000    0.38270   0.70430   0.26930   Biso      1.000     C          0.12643800000000002           
         C48       1.0000    0.68560   0.16740   0.15760   Biso      1.000     C          0.5200859999999999  
         C49       1.0000    0.31080   0.58570   0.46757   Biso      1.000     C          0.614298  
         C50       1.0000    0.41550   0.51770   0.43458   Biso      1.000     C          0.097053  
         C51       1.0000    0.41840   0.43450   0.43800   Biso      1.000     C          -0.14861400000000002          
         C52       1.0000    0.52120   0.37890   0.40740   Biso      1.000     C          -0.013011000000000002         
         C53       1.0000    0.61640   0.40660   0.37340   Biso      1.000     C          -0.144047           
         C54       1.0000    0.35640   0.73260   0.22170   Biso      1.000     C          -0.135946           
         C55       1.0000    0.60740   0.49080   0.37140   Biso      1.000     C          0.114672  
         C56       1.0000    0.70080   0.75330   0.52660   Biso      1.000     C          0.518333  
         C57       1.0000    0.60750   0.83110   0.54020   Biso      1.000     C          0.11011900000000001           
         C58       1.0000    0.61840   0.90150   0.59030   Biso      1.000     C          -0.15942699999999999          
         C59       1.0000    0.52560   0.97060   0.59850   Biso      1.000     C          -0.013396000000000002         
         C60       1.0000    0.42150   0.96540   0.55710   Biso      1.000     C          -0.14770999999999998          
         C61       1.0000    0.41680   0.89330   0.50820   Biso      1.000     C          0.10741700000000001           
         C62       1.0000    0.31030   0.88270   0.46010   Biso      1.000     C          0.616618  
         C63       1.0000    0.70640   0.52960   0.33771   Biso      1.000     C          0.577176  
         C64       1.0000    0.44220   0.79520   0.21230   Biso      1.000     C          -0.035962           
         C65       1.0000    0.29240   0.63740   0.28470   Biso      1.000     C          0.587595  
         C66       1.0000    0.57200   0.79810   0.29670   Biso      1.000     C          0.119442  
         C67       1.0000    0.38270   0.29570   0.23070   Biso      1.000     C          0.126432  
         C68       1.0000    0.31080   0.41430   0.03243   Biso      1.000     C          0.614301  
         C69       1.0000    0.41550   0.48230   0.06542   Biso      1.000     C          0.097051  
         C70       1.0000    0.41840   0.56550   0.06200   Biso      1.000     C          -0.148611           
         C71       1.0000    0.55320   0.82830   0.25000   Biso      1.000     C          -0.15245699999999998          
         C72       1.0000    0.61640   0.59340   0.12660   Biso      1.000     C          -0.144049           
         C73       1.0000    0.60740   0.50920   0.12860   Biso      1.000     C          0.114674  
         C74       1.0000    0.70640   0.47040   0.16229   Biso      1.000     C          0.577177  
         C75       1.0000    0.52120   0.62110   0.09260   Biso      1.000     C          -0.013006           
         C76       1.0000    0.60750   0.16890   0.95980   Biso      1.000     C          0.11011099999999999           
         C77       1.0000    0.61840   0.09850   0.90970   Biso      1.000     C          -0.159428           
         C78       1.0000    0.52560   0.02940   0.90150   Biso      1.000     C          -0.013399000000000001         
         C79       1.0000    0.42150   0.03460   0.94290   Biso      1.000     C          -0.14771199999999998          
         C80       1.0000    0.41680   0.10670   0.99180   Biso      1.000     C          0.10741700000000001           
         C81       1.0000    0.31030   0.11730   0.03990   Biso      1.000     C          0.6166149999999999  
         C82       1.0000    0.68560   0.83260   0.34240   Biso      1.000     C          0.520093  
         C83       1.0000    0.70080   0.24670   0.97340   Biso      1.000     C          0.518336  
         C84       1.0000    0.57200   0.20190   0.20330   Biso      1.000     C          0.119447  
         Ca1       1.0000    0.00000   0.00000   0.50000   Biso      1.000     Ca          1.640208  
         Ca2       1.0000    0.00000   0.00000   0.00000   Biso      1.000     Ca          1.640208  
         Ca3       1.0000    0.00000   0.50000   0.50000   Biso      1.000     Ca          1.635548  
         Ca4       1.0000    0.00000   0.50000   0.00000   Biso      1.000     Ca          1.63555   
         Ca5       1.0000    0.00269   0.50000   0.25000   Biso      1.000     Ca          1.516664  
         Ca6       1.0000    0.99731   0.50000   0.75000   Biso      1.000     Ca          1.5166629999999999  
         Eu1       1.0000    0.49558   0.70256   0.90275   Biso      1.000     Eu          1.151932  
         Eu2       1.0000    0.49558   0.29745   0.59725   Biso      1.000     Eu          1.151878  
         Eu3       1.0000    0.50442   0.29745   0.09725   Biso      1.000     Eu          1.151878  
         Eu4       1.0000    0.50442   0.70256   0.40275   Biso      1.000     Eu          1.151932  
         H1        1.0000    0.53330   0.01960   0.63120   Biso      1.000     H          0.11427999999999999           
         H2        1.0000    0.64770   0.58360   0.53950   Biso      1.000     H          0.11318900000000001           
         H3        1.0000    0.71820   0.29050   0.80360   Biso      1.000     H          0.129522  
         H4        1.0000    0.57440   0.18450   0.81940   Biso      1.000     H          0.10609   
         H5        1.0000    0.38640   0.13010   0.75620   Biso      1.000     H          0.13299   
         H6        1.0000    0.64410   0.00990   0.06220   Biso      1.000     H          0.11367000000000001           
         H7        1.0000    0.46670   0.01960   0.13120   Biso      1.000     H          0.11427999999999999           
         H8        1.0000    0.31300   0.90250   0.11830   Biso      1.000     H          0.12851600000000002           
         H9        1.0000    0.47330   0.32260   0.90950   Biso      1.000     H          0.113175  
         H10       1.0000    0.47330   0.67740   0.59050   Biso      1.000     H          0.113176  
         H11       1.0000    0.64770   0.41640   0.96050   Biso      1.000     H          0.113187  
         H12       1.0000    0.71820   0.70950   0.69640   Biso      1.000     H          0.129522  
         H13       1.0000    0.57440   0.81550   0.68060   Biso      1.000     H          0.10609   
         H14       1.0000    0.38640   0.86990   0.74380   Biso      1.000     H          0.132991  
         H15       1.0000    0.35590   0.00990   0.56220   Biso      1.000     H          0.11367000000000001           
         H16       1.0000    0.31430   0.36920   0.85210   Biso      1.000     H          0.126852  
         H17       1.0000    0.31300   0.09750   0.38170   Biso      1.000     H          0.12851600000000002           
         H18       1.0000    0.31430   0.63080   0.64790   Biso      1.000     H          0.126853  
         H19       1.0000    0.61360   0.86990   0.24380   Biso      1.000     H          0.132991  
         H20       1.0000    0.52670   0.32260   0.40950   Biso      1.000     H          0.113175  
         H21       1.0000    0.35230   0.41640   0.46050   Biso      1.000     H          0.113186  
         H22       1.0000    0.28180   0.70950   0.19640   Biso      1.000     H          0.129522  
         H23       1.0000    0.42560   0.81550   0.18060   Biso      1.000     H          0.10609   
         H24       1.0000    0.46670   0.98040   0.36880   Biso      1.000     H          0.11427899999999999           
         H25       1.0000    0.35590   0.99010   0.93780   Biso      1.000     H          0.113669  
         H26       1.0000    0.68570   0.36920   0.35210   Biso      1.000     H          0.126852  
         H27       1.0000    0.53330   0.98040   0.86880   Biso      1.000     H          0.11427999999999999           
         H28       1.0000    0.68570   0.63080   0.14790   Biso      1.000     H          0.126853  
         H29       1.0000    0.52670   0.67740   0.09050   Biso      1.000     H          0.113176  
         H30       1.0000    0.35230   0.58360   0.03950   Biso      1.000     H          0.11318800000000001           
         H31       1.0000    0.28180   0.29050   0.30360   Biso      1.000     H          0.129522  
         H32       1.0000    0.42560   0.18450   0.31940   Biso      1.000     H          0.10609   
         H33       1.0000    0.61360   0.13010   0.25620   Biso      1.000     H          0.132991  
         H34       1.0000    0.64410   0.99010   0.43780   Biso      1.000     H          0.113669  
         H35       1.0000    0.68700   0.09750   0.88170   Biso      1.000     H          0.12851600000000002           
         H36       1.0000    0.68700   0.90250   0.61830   Biso      1.000     H          0.12851600000000002           
         N1        1.0000    0.50860   0.17180   0.00081   Biso      1.000     N          -0.27014499999999997          
         N2        1.0000    0.50910   0.45400   0.09775   Biso      1.000     N          -0.268708           
         N3        1.0000    0.50860   0.82820   0.49919   Biso      1.000     N          -0.270169           
         N4        1.0000    0.48850   0.73750   0.30674   Biso      1.000     N          -0.269336           
         N5        1.0000    0.48850   0.26250   0.19326   Biso      1.000     N          -0.269313           
         N6        1.0000    0.50910   0.54600   0.40225   Biso      1.000     N          -0.26871799999999996          
         N7        1.0000    0.49090   0.45400   0.59775   Biso      1.000     N          -0.268708           
         N8        1.0000    0.51150   0.26250   0.69326   Biso      1.000     N          -0.269312           
         N9        1.0000    0.49140   0.82820   0.99919   Biso      1.000     N          -0.270169           
         N10       1.0000    0.49090   0.54600   0.90225   Biso      1.000     N          -0.268717           
         N11       1.0000    0.51150   0.73750   0.80674   Biso      1.000     N          -0.269336           
         N12       1.0000    0.49140   0.17180   0.50081   Biso      1.000     N          -0.270146           
         O1        1.0000    0.77280   0.11520   0.16549   Biso      1.000     O          -0.48964399999999997          
         O2        1.0000    0.32130   0.37300   0.16585   Biso      1.000     O          -0.528084           
         O3        1.0000    0.20030   0.40050   0.24976   Biso      1.000     O          -0.641075           
         O4        1.0000    0.33140   0.33770   0.03439   Biso      1.000     O          -0.532241           
         O5        1.0000    0.21330   0.43690   0.00620   Biso      1.000     O          -0.754336           
         O6        1.0000    0.68430   0.39100   0.15770   Biso      1.000     O          -0.5258510000000001           
         O7        1.0000    0.80370   0.51590   0.19011   Biso      1.000     O          -0.658574           
         O8        1.0000    0.68570   0.30230   0.02360   Biso      1.000     O          -0.5135569999999999           
         O9        1.0000    0.78390   0.25330   0.93451   Biso      1.000     O          -0.536779           
         O10       1.0000    0.32570   0.18200   0.08458   Biso      1.000     O          -0.524767           
         O11       1.0000    0.67920   0.80700   0.38790   Biso      1.000     O          -0.506035           
         O12       1.0000    0.67920   0.19300   0.11210   Biso      1.000     O          -0.506015           
         O13       1.0000    0.77280   0.88480   0.33451   Biso      1.000     O          -0.48965699999999995          
         O14       1.0000    0.32130   0.62700   0.33415   Biso      1.000     O          -0.528066           
         O15       1.0000    0.20030   0.59950   0.25024   Biso      1.000     O          -0.641074           
         O16       1.0000    0.33140   0.66230   0.46561   Biso      1.000     O          -0.532237           
         O17       1.0000    0.21330   0.56310   0.49380   Biso      1.000     O          -0.75434  
         O18       1.0000    0.68430   0.60900   0.34230   Biso      1.000     O          -0.525849           
         O19       1.0000    0.80370   0.48410   0.30989   Biso      1.000     O          -0.658569           
         O20       1.0000    0.68570   0.69770   0.47640   Biso      1.000     O          -0.5135609999999999           
         O21       1.0000    0.78390   0.74670   0.56549   Biso      1.000     O          -0.536779           
         O22       1.0000    0.21360   0.06270   0.03263   Biso      1.000     O          -0.765949           
         O23       1.0000    0.78640   0.06270   0.53263   Biso      1.000     O          -0.765949           
         O24       1.0000    0.31430   0.30230   0.52360   Biso      1.000     O          -0.513554           
         O25       1.0000    0.21610   0.25330   0.43451   Biso      1.000     O          -0.5367770000000001           
         O26       1.0000    0.32570   0.81800   0.41542   Biso      1.000     O          -0.52478  
         O27       1.0000    0.32080   0.80700   0.88790   Biso      1.000     O          -0.506035           
         O28       1.0000    0.22720   0.88480   0.83451   Biso      1.000     O          -0.48965299999999995          
         O29       1.0000    0.67870   0.62700   0.83415   Biso      1.000     O          -0.528064           
         O30       1.0000    0.79970   0.59950   0.75024   Biso      1.000     O          -0.641073           
         O31       1.0000    0.66860   0.66230   0.96561   Biso      1.000     O          -0.5322359999999999           
         O32       1.0000    0.78670   0.56310   0.99380   Biso      1.000     O          -0.754341           
         O33       1.0000    0.31570   0.60900   0.84230   Biso      1.000     O          -0.5258470000000001           
         O34       1.0000    0.19630   0.48410   0.80989   Biso      1.000     O          -0.658568           
         O35       1.0000    0.31430   0.69770   0.97640   Biso      1.000     O          -0.5135649999999999           
         O36       1.0000    0.21610   0.74670   0.06549   Biso      1.000     O          -0.5367850000000001           
         O37       1.0000    0.67430   0.81800   0.91542   Biso      1.000     O          -0.524781           
         O38       1.0000    0.78640   0.93730   0.96737   Biso      1.000     O          -0.765942           
         O39       1.0000    0.32080   0.19300   0.61210   Biso      1.000     O          -0.506019           
         O40       1.0000    0.22720   0.11520   0.66549   Biso      1.000     O          -0.489647           
         O41       1.0000    0.67870   0.37300   0.66585   Biso      1.000     O          -0.528081           
         O42       1.0000    0.79970   0.40050   0.74976   Biso      1.000     O          -0.641075           
         O43       1.0000    0.66860   0.33770   0.53439   Biso      1.000     O          -0.532242           
         O44       1.0000    0.78670   0.43690   0.50620   Biso      1.000     O          -0.754336           
         O45       1.0000    0.31570   0.39100   0.65770   Biso      1.000     O          -0.5258510000000001           
         O46       1.0000    0.19630   0.51590   0.69011   Biso      1.000     O          -0.658573           
         O47       1.0000    0.67430   0.18200   0.58458   Biso      1.000     O          -0.524767           
         O48       1.0000    0.21360   0.93730   0.46737   Biso      1.000     O          -0.765941 