
##########################################################################
#               Crystallographic Information Format file
#               Produced by PyCifRW module
#
#  This is a CIF file.  CIF has been adopted by the International
#  Union of Crystallography as the standard for data archiving and
#  transmission.
#
#  For information on this file format, follow the CIF links at
#  http://www.iucr.org
##########################################################################

data_image0

_cell_length_a                          11.302
_cell_length_b                          13.735
_cell_length_c                          13.53
_cell_angle_alpha                       90
_cell_angle_beta                        90
_cell_angle_gamma                       97.17
_symmetry_space_group_name_H-M          'P 1'
_symmetry_int_tables_number             1
loop_
  _symmetry_equiv_pos_as_xyz
         'x, y, z' 
loop_
  _atom_site_label
  _atom_site_occupancy
  _atom_site_fract_x
  _atom_site_fract_y
  _atom_site_fract_z
  _atom_site_thermal_displace_type
  _atom_site_B_iso_or_equiv
  _atom_site_type_symbol
  _atom_site_charge
         Fe1       1.0000    0.25000   0.50000   0.25000   Biso      1.000     Fe          -0.086381           
         Fe2       1.0000    0.75000   0.50000   0.75000   Biso      1.000     Fe          -0.086381           
         Fe3       1.0000    0.75000   0.00000   0.25000   Biso      1.000     Fe          -0.086381           
         Fe4       1.0000    0.25000   0.00000   0.75000   Biso      1.000     Fe          -0.086381           
         C1        1.0000    0.08016   0.47690   0.26927   Biso      1.000     C          0.151634  
         C2        1.0000    0.91984   0.52310   0.73073   Biso      1.000     C          0.151634  
         C3        1.0000    0.91984   0.02310   0.26927   Biso      1.000     C          0.151634  
         C4        1.0000    0.08016   0.97690   0.73073   Biso      1.000     C          0.151634  
         C5        1.0000    0.58016   0.47690   0.76927   Biso      1.000     C          0.151634  
         C6        1.0000    0.41984   0.52310   0.23073   Biso      1.000     C          0.151634  
         C7        1.0000    0.41984   0.02310   0.76927   Biso      1.000     C          0.151634  
         C8        1.0000    0.58016   0.97690   0.23073   Biso      1.000     C          0.151634  
         C9        1.0000    0.25113   0.36737   0.28328   Biso      1.000     C          0.152714  
         C10       1.0000    0.74887   0.63263   0.71672   Biso      1.000     C          0.152714  
         C11       1.0000    0.74887   0.13263   0.28328   Biso      1.000     C          0.152714  
         C12       1.0000    0.25113   0.86737   0.71672   Biso      1.000     C          0.152714  
         C13       1.0000    0.75113   0.36737   0.78328   Biso      1.000     C          0.152714  
         C14       1.0000    0.24887   0.63263   0.21672   Biso      1.000     C          0.152714  
         C15       1.0000    0.24887   0.13263   0.78328   Biso      1.000     C          0.152714  
         C16       1.0000    0.75113   0.86737   0.21672   Biso      1.000     C          0.152714  
         C17       1.0000    0.24414   0.46619   0.11464   Biso      1.000     C          0.15022   
         C18       1.0000    0.75586   0.53381   0.88536   Biso      1.000     C          0.15022   
         C19       1.0000    0.75586   0.03381   0.11464   Biso      1.000     C          0.15022   
         C20       1.0000    0.24414   0.96619   0.88536   Biso      1.000     C          0.15022   
         C21       1.0000    0.74414   0.46619   0.61464   Biso      1.000     C          0.15022   
         C22       1.0000    0.25586   0.53381   0.38536   Biso      1.000     C          0.15022   
         C23       1.0000    0.25586   0.03381   0.61464   Biso      1.000     C          0.15022   
         C24       1.0000    0.74414   0.96619   0.38536   Biso      1.000     C          0.15022   
         N1        1.0000    0.97781   0.45778   0.29167   Biso      1.000     N          -0.624962           
         N2        1.0000    0.02219   0.54222   0.70833   Biso      1.000     N          -0.624962           
         N3        1.0000    0.02219   0.04222   0.29167   Biso      1.000     N          -0.624962           
         N4        1.0000    0.97781   0.95778   0.70833   Biso      1.000     N          -0.624962           
         N5        1.0000    0.47781   0.45778   0.79167   Biso      1.000     N          -0.624962           
         N6        1.0000    0.52219   0.54222   0.20833   Biso      1.000     N          -0.624962           
         N7        1.0000    0.52219   0.04222   0.79167   Biso      1.000     N          -0.624962           
         N8        1.0000    0.47781   0.95778   0.20833   Biso      1.000     N          -0.624962           
         N9        1.0000    0.24564   0.28378   0.30774   Biso      1.000     N          -0.627547           
         N10       1.0000    0.75436   0.71622   0.69226   Biso      1.000     N          -0.627547           
         N11       1.0000    0.75436   0.21622   0.30774   Biso      1.000     N          -0.627547           
         N12       1.0000    0.24564   0.78378   0.69226   Biso      1.000     N          -0.627547           
         N13       1.0000    0.74564   0.28378   0.80774   Biso      1.000     N          -0.627547           
         N14       1.0000    0.25436   0.71622   0.19226   Biso      1.000     N          -0.627547           
         N15       1.0000    0.25436   0.21622   0.80774   Biso      1.000     N          -0.627547           
         N16       1.0000    0.74564   0.78378   0.19226   Biso      1.000     N          -0.627547           
         N17       1.0000    0.25137   0.44293   0.03013   Biso      1.000     N          -0.62258  
         N18       1.0000    0.74863   0.55707   0.96987   Biso      1.000     N          -0.62258  
         N19       1.0000    0.74863   0.05707   0.03013   Biso      1.000     N          -0.62258  
         N20       1.0000    0.25137   0.94293   0.96987   Biso      1.000     N          -0.62258  
         N21       1.0000    0.75137   0.44293   0.53013   Biso      1.000     N          -0.62258  
         N22       1.0000    0.24863   0.55707   0.46987   Biso      1.000     N          -0.62258  
         N23       1.0000    0.24863   0.05707   0.53013   Biso      1.000     N          -0.62258  
         N24       1.0000    0.75137   0.94293   0.46987   Biso      1.000     N          -0.62258  
         Ca1       1.0000    0.82426   0.36484   0.38750   Biso      1.000     Ca          1.463712  
         Ca2       1.0000    0.17574   0.63516   0.61250   Biso      1.000     Ca          1.463712  
         Ca3       1.0000    0.17574   0.13516   0.38750   Biso      1.000     Ca          1.463712  
         Ca4       1.0000    0.82426   0.86484   0.61250   Biso      1.000     Ca          1.463712  
         Ca5       1.0000    0.32426   0.36484   0.88750   Biso      1.000     Ca          1.463712  
         Ca6       1.0000    0.67574   0.63516   0.11250   Biso      1.000     Ca          1.463712  
         Ca7       1.0000    0.67574   0.13516   0.88750   Biso      1.000     Ca          1.463712  
         Ca8       1.0000    0.32426   0.86484   0.11250   Biso      1.000     Ca          1.463712 