
##########################################################################
#               Crystallographic Information Format file
#               Produced by PyCifRW module
#
#  This is a CIF file.  CIF has been adopted by the International
#  Union of Crystallography as the standard for data archiving and
#  transmission.
#
#  For information on this file format, follow the CIF links at
#  http://www.iucr.org
##########################################################################

data_image0

_cell_length_a                          8.8079
_cell_length_b                          8.8079
_cell_length_c                          21.1663
_cell_angle_alpha                       90
_cell_angle_beta                        90
_cell_angle_gamma                       120
_symmetry_space_group_name_H-M          'P 1'
_symmetry_int_tables_number             1
loop_
  _symmetry_equiv_pos_as_xyz
         'x, y, z' 
loop_
  _atom_site_label
  _atom_site_occupancy
  _atom_site_fract_x
  _atom_site_fract_y
  _atom_site_fract_z
  _atom_site_thermal_displace_type
  _atom_site_B_iso_or_equiv
  _atom_site_type_symbol
  _atom_site_charge
         C1        1.0000    0.36240   0.29770   0.71847   Biso      1.000     C          0.215101  
         C2        1.0000    0.50710   0.04770   0.55486   Biso      1.000     C          -0.285148           
         C3        1.0000    0.45530   0.51830   0.61381   Biso      1.000     C          -0.283164           
         C4        1.0000    0.66610   0.05040   0.55432   Biso      1.000     C          0.222931  
         C5        1.0000    0.06470   0.70230   0.28153   Biso      1.000     C          0.215097  
         C6        1.0000    0.54060   0.49290   0.22152   Biso      1.000     C          -0.286896           
         C7        1.0000    0.06300   0.54470   0.28047   Biso      1.000     C          -0.285491           
         C8        1.0000    0.38430   0.33390   0.22098   Biso      1.000     C          0.225347  
         C9        1.0000    0.70230   0.06470   0.05180   Biso      1.000     C          0.215079  
         C10       1.0000    0.49290   0.54060   0.11181   Biso      1.000     C          -0.287347           
         C11       1.0000    0.54470   0.06300   0.05286   Biso      1.000     C          -0.283389           
         C12       1.0000    0.33390   0.38430   0.11235   Biso      1.000     C          0.224852  
         C13       1.0000    0.93530   0.63760   0.38513   Biso      1.000     C          0.213905  
         C14       1.0000    0.45940   0.95230   0.44514   Biso      1.000     C          -0.285084           
         C15       1.0000    0.93700   0.48170   0.38619   Biso      1.000     C          -0.283229           
         C16       1.0000    0.61570   0.94960   0.44568   Biso      1.000     C          0.222976  
         C17       1.0000    0.72050   0.00000   0.50000   Biso      1.000     C          0.108236  
         C18       1.0000    0.04770   0.50710   0.77848   Biso      1.000     C          -0.28688  
         C19       1.0000    0.51830   0.45530   0.71953   Biso      1.000     C          -0.285494           
         C20       1.0000    0.05040   0.66610   0.77902   Biso      1.000     C          0.225364  
         C21       1.0000    0.26700   0.00000   0.00000   Biso      1.000     C          0.587239  
         C22       1.0000    0.75080   0.00000   0.00000   Biso      1.000     C          0.116569  
         C23       1.0000    0.43540   0.00000   0.00000   Biso      1.000     C          -0.000968           
         C24       1.0000    0.73300   0.73300   0.66667   Biso      1.000     C          0.587251  
         C25       1.0000    0.24920   0.24920   0.66667   Biso      1.000     C          0.1156    
         C26       1.0000    0.56460   0.56460   0.66667   Biso      1.000     C          -0.00096  
         C27       1.0000    0.00000   0.26700   0.33333   Biso      1.000     C          0.587255  
         C28       1.0000    0.00000   0.75080   0.33333   Biso      1.000     C          0.115589  
         C29       1.0000    0.00000   0.43540   0.33333   Biso      1.000     C          -0.000983           
         C30       1.0000    0.00000   0.72050   0.83333   Biso      1.000     C          0.106842  
         C31       1.0000    0.29770   0.36240   0.61487   Biso      1.000     C          0.213948  
         C32       1.0000    0.94960   0.61570   0.88765   Biso      1.000     C          0.224912  
         C33       1.0000    0.48170   0.93700   0.94714   Biso      1.000     C          -0.28346  
         C34       1.0000    0.95230   0.45940   0.88819   Biso      1.000     C          -0.287275           
         C35       1.0000    0.59440   0.59440   0.16667   Biso      1.000     C          -0.00042  
         C36       1.0000    0.76340   0.76340   0.16667   Biso      1.000     C          0.589112  
         C37       1.0000    0.27950   0.27950   0.16667   Biso      1.000     C          0.106822  
         C38       1.0000    0.40560   0.00000   0.50000   Biso      1.000     C          -0.002045           
         C39       1.0000    0.23660   0.00000   0.50000   Biso      1.000     C          0.587591  
         C40       1.0000    0.00000   0.23660   0.83333   Biso      1.000     C          0.589118  
         C41       1.0000    0.00000   0.40560   0.83333   Biso      1.000     C          -0.000388           
         C42       1.0000    0.63760   0.93530   0.94820   Biso      1.000     C          0.215036  
         H1        1.0000    0.89620   0.40740   0.42213   Biso      1.000     H          0.142801  
         H2        1.0000    0.11600   0.74600   0.69427   Biso      1.000     H          0.431417  
         H3        1.0000    0.36400   0.21400   0.79977   Biso      1.000     H          0.427353  
         H4        1.0000    0.59260   0.48880   0.75547   Biso      1.000     H          0.143803  
         H5        1.0000    0.07790   0.46790   0.74127   Biso      1.000     H          0.141882  
         H6        1.0000    0.92210   0.39000   0.92540   Biso      1.000     H          0.142183  
         H7        1.0000    0.40740   0.89620   0.91120   Biso      1.000     H          0.143027  
         H8        1.0000    0.63600   0.85000   0.86690   Biso      1.000     H          0.427352  
         H9        1.0000    0.88400   0.63000   0.97240   Biso      1.000     H          0.432281  
         H10       1.0000    0.46790   0.07790   0.59207   Biso      1.000     H          0.141831  
         H11       1.0000    0.85000   0.63600   0.46643   Biso      1.000     H          0.426511  
         H12       1.0000    0.48880   0.59260   0.57787   Biso      1.000     H          0.142865  
         H13       1.0000    0.74600   0.11600   0.63907   Biso      1.000     H          0.431788  
         H14       1.0000    0.61000   0.53210   0.25873   Biso      1.000     H          0.141854  
         H15       1.0000    0.63000   0.88400   0.36093   Biso      1.000     H          0.431815  
         H16       1.0000    0.15000   0.78600   0.20023   Biso      1.000     H          0.427314  
         H17       1.0000    0.37000   0.25400   0.30573   Biso      1.000     H          0.431363  
         H18       1.0000    0.53210   0.61000   0.07460   Biso      1.000     H          0.142104  
         H19       1.0000    0.51120   0.10380   0.08880   Biso      1.000     H          0.143081  
         H20       1.0000    0.78600   0.15000   0.13310   Biso      1.000     H          0.427369  
         H21       1.0000    0.25400   0.37000   0.02760   Biso      1.000     H          0.432194  
         H22       1.0000    0.39000   0.92210   0.40793   Biso      1.000     H          0.141884  
         H23       1.0000    0.21400   0.36400   0.53357   Biso      1.000     H          0.426573  
         H24       1.0000    0.10380   0.51120   0.24453   Biso      1.000     H          0.143791  
         Ni1       1.0000    0.96527   0.94629   0.91718   Biso      1.000     Ni          0.974549  
         Ni2       1.0000    0.03473   0.98102   0.74948   Biso      1.000     Ni          0.973819  
         Ni3       1.0000    0.94629   0.96527   0.41615   Biso      1.000     Ni          0.973858  
         Ni4       1.0000    0.01898   0.05371   0.08282   Biso      1.000     Ni          0.974404  
         Ni5       1.0000    0.05371   0.01898   0.25052   Biso      1.000     Ni          0.973678  
         Ni6       1.0000    0.98102   0.03473   0.58385   Biso      1.000     Ni          0.973922  
         O1        1.0000    0.02550   0.21420   0.38598   Biso      1.000     O          -0.577544           
         O2        1.0000    0.87010   0.69650   0.43252   Biso      1.000     O          -0.486581           
         O3        1.0000    0.19130   0.03930   0.44857   Biso      1.000     O          -0.57471  
         O4        1.0000    0.68080   0.89790   0.39655   Biso      1.000     O          -0.491201           
         O5        1.0000    0.78580   0.81130   0.71932   Biso      1.000     O          -0.577889           
         O6        1.0000    0.30350   0.17360   0.76586   Biso      1.000     O          -0.487908           
         O7        1.0000    0.10210   0.78290   0.72989   Biso      1.000     O          -0.491307           
         O8        1.0000    0.21710   0.31920   0.06322   Biso      1.000     O          -0.491827           
         O9        1.0000    0.90140   0.00000   0.00000   Biso      1.000     O          -0.553407           
         O10       1.0000    0.09860   0.09860   0.66667   Biso      1.000     O          -0.551583           
         O11       1.0000    0.00000   0.90140   0.33333   Biso      1.000     O          -0.551596           
         O12       1.0000    0.00000   0.87140   0.83333   Biso      1.000     O          -0.554371           
         O13       1.0000    0.96070   0.15200   0.78191   Biso      1.000     O          -0.575246           
         O14       1.0000    0.84800   0.80870   0.11524   Biso      1.000     O          -0.575463           
         O15       1.0000    0.18870   0.97450   0.05265   Biso      1.000     O          -0.578054           
         O16       1.0000    0.87140   0.00000   0.50000   Biso      1.000     O          -0.554185           
         O17       1.0000    0.31920   0.21710   0.27011   Biso      1.000     O          -0.491313           
         O18       1.0000    0.80870   0.84800   0.21809   Biso      1.000     O          -0.575287           
         O19       1.0000    0.12990   0.82640   0.23414   Biso      1.000     O          -0.4879   
         O20       1.0000    0.97450   0.18870   0.28068   Biso      1.000     O          -0.577908           
         O21       1.0000    0.78290   0.10210   0.60345   Biso      1.000     O          -0.491242           
         O22       1.0000    0.15200   0.96070   0.55143   Biso      1.000     O          -0.574774           
         O23       1.0000    0.17360   0.30350   0.56748   Biso      1.000     O          -0.486546           
         O24       1.0000    0.81130   0.78580   0.61402   Biso      1.000     O          -0.577438           
         O25       1.0000    0.89790   0.68080   0.93678   Biso      1.000     O          -0.491785           
         O26       1.0000    0.03930   0.19130   0.88476   Biso      1.000     O          -0.575339           
         O27       1.0000    0.69650   0.87010   0.90081   Biso      1.000     O          -0.488476           
         O28       1.0000    0.21420   0.02550   0.94735   Biso      1.000     O          -0.578122           
         O29       1.0000    0.82640   0.12990   0.09919   Biso      1.000     O          -0.488427           
         O30       1.0000    0.12860   0.12860   0.16667   Biso      1.000     O          -0.55439 