
##########################################################################
#               Crystallographic Information Format file
#               Produced by PyCifRW module
#
#  This is a CIF file.  CIF has been adopted by the International
#  Union of Crystallography as the standard for data archiving and
#  transmission.
#
#  For information on this file format, follow the CIF links at
#  http://www.iucr.org
##########################################################################

data_image0

_cell_length_a                          8.824
_cell_length_b                          8.824
_cell_length_c                          10.644
_cell_angle_alpha                       90
_cell_angle_beta                        90
_cell_angle_gamma                       120
_symmetry_space_group_name_H-M          'P 1'
_symmetry_int_tables_number             1
loop_
  _symmetry_equiv_pos_as_xyz
         'x, y, z' 
loop_
  _atom_site_label
  _atom_site_occupancy
  _atom_site_fract_x
  _atom_site_fract_y
  _atom_site_fract_z
  _atom_site_thermal_displace_type
  _atom_site_B_iso_or_equiv
  _atom_site_type_symbol
  _atom_site_charge
         C1        1.0000    0.52720   0.47170   0.77337   Biso      1.000     C          -0.297745           
         C2        1.0000    0.73670   0.73670   0.66667   Biso      1.000     C          0.098486  
         C3        1.0000    0.57910   0.00000   0.00000   Biso      1.000     C          0.000231  
         C4        1.0000    0.74740   0.00000   0.00000   Biso      1.000     C          0.593199  
         C5        1.0000    0.26330   0.00000   0.00000   Biso      1.000     C          0.099607  
         C6        1.0000    0.68520   0.62780   0.77227   Biso      1.000     C          0.259354  
         C7        1.0000    0.00000   0.26330   0.33333   Biso      1.000     C          0.098489  
         C8        1.0000    0.94260   0.31480   0.43893   Biso      1.000     C          0.25906599999999996           
         C9        1.0000    0.94450   0.47280   0.44003   Biso      1.000     C          -0.298007           
         C10       1.0000    0.37220   0.05740   0.10560   Biso      1.000     C          0.258561  
         C11       1.0000    0.52830   0.05550   0.10670   Biso      1.000     C          -0.298322           
         C12       1.0000    0.05740   0.37220   0.22773   Biso      1.000     C          0.259344  
         C13       1.0000    0.05550   0.52830   0.22663   Biso      1.000     C          -0.29775999999999997          
         C14       1.0000    0.62780   0.68520   0.56107   Biso      1.000     C          0.25906999999999997           
         C15       1.0000    0.47170   0.52720   0.55997   Biso      1.000     C          -0.297978           
         C16       1.0000    0.25260   0.25260   0.66667   Biso      1.000     C          0.5946779999999999  
         C17       1.0000    0.31480   0.94260   0.89440   Biso      1.000     C          0.258567  
         C18       1.0000    0.00000   0.74740   0.33333   Biso      1.000     C          0.594673  
         C19       1.0000    0.00000   0.57910   0.33333   Biso      1.000     C          0.001013  
         C20       1.0000    0.47280   0.94450   0.89330   Biso      1.000     C          -0.29834  
         C21       1.0000    0.42090   0.42090   0.66667   Biso      1.000     C          0.001018  
         H1        1.0000    0.48800   0.39200   0.83567   Biso      1.000     H          0.147999  
         H2        1.0000    0.78900   0.65300   0.93767   Biso      1.000     H          0.46397299999999997           
         H3        1.0000    0.90400   0.51200   0.50233   Biso      1.000     H          0.147454  
         H4        1.0000    0.86400   0.21100   0.60433   Biso      1.000     H          0.465211  
         H5        1.0000    0.60800   0.09600   0.16900   Biso      1.000     H          0.148231  
         H6        1.0000    0.34700   0.13600   0.27100   Biso      1.000     H          0.463154  
         H7        1.0000    0.09600   0.60800   0.16433   Biso      1.000     H          0.147981  
         H8        1.0000    0.13600   0.34700   0.06233   Biso      1.000     H          0.46396899999999996           
         H9        1.0000    0.39200   0.48800   0.49767   Biso      1.000     H          0.147454  
         H10       1.0000    0.65300   0.78900   0.39567   Biso      1.000     H          0.46516199999999996           
         H11       1.0000    0.51200   0.90400   0.83100   Biso      1.000     H          0.148249  
         H12       1.0000    0.21100   0.86400   0.72900   Biso      1.000     H          0.463207  
         Ni1       1.0000    0.00000   0.95806   0.83333   Biso      1.000     Ni          0.9604870000000001  
         Ni2       1.0000    0.04194   0.04194   0.16667   Biso      1.000     Ni          0.960493  
         Ni3       1.0000    0.95806   0.00000   0.50000   Biso      1.000     Ni          0.9605530000000001  
         O1        1.0000    0.11330   0.00000   0.00000   Biso      1.000     O          -0.5564479999999999           
         O2        1.0000    0.17100   0.20310   0.76977   Biso      1.000     O          -0.5796859999999999           
         O3        1.0000    0.80410   0.68960   0.86847   Biso      1.000     O          -0.5433560000000001           
         O4        1.0000    0.03210   0.82900   0.43643   Biso      1.000     O          -0.5792649999999999           
         O5        1.0000    0.88550   0.19590   0.53513   Biso      1.000     O          -0.5442279999999999           
         O6        1.0000    0.79690   0.96790   0.10310   Biso      1.000     O          -0.578763           
         O7        1.0000    0.31040   0.11450   0.20180   Biso      1.000     O          -0.541312           
         O8        1.0000    0.96790   0.79690   0.23023   Biso      1.000     O          -0.5796979999999999           
         O9        1.0000    0.11450   0.31040   0.13153   Biso      1.000     O          -0.5433720000000001           
         O10       1.0000    0.20310   0.17100   0.56357   Biso      1.000     O          -0.579241           
         O11       1.0000    0.68960   0.80410   0.46487   Biso      1.000     O          -0.544195           
         O12       1.0000    0.82900   0.03210   0.89690   Biso      1.000     O          -0.578774           
         O13       1.0000    0.19590   0.88550   0.79820   Biso      1.000     O          -0.541329           
         O14       1.0000    0.88670   0.88670   0.66667   Biso      1.000     O          -0.555558           
         O15       1.0000    0.00000   0.11330   0.33333   Biso      1.000     O          -0.555558 