
##########################################################################
#               Crystallographic Information Format file
#               Produced by PyCifRW module
#
#  This is a CIF file.  CIF has been adopted by the International
#  Union of Crystallography as the standard for data archiving and
#  transmission.
#
#  For information on this file format, follow the CIF links at
#  http://www.iucr.org
##########################################################################

data_image0

_cell_length_a                          9.063
_cell_length_b                          9.063
_cell_length_c                          10.947
_cell_angle_alpha                       90
_cell_angle_beta                        90
_cell_angle_gamma                       120
_symmetry_space_group_name_H-M          'P 1'
_symmetry_int_tables_number             1
loop_
  _symmetry_equiv_pos_as_xyz
         'x, y, z' 
loop_
  _atom_site_label
  _atom_site_occupancy
  _atom_site_fract_x
  _atom_site_fract_y
  _atom_site_fract_z
  _atom_site_thermal_displace_type
  _atom_site_B_iso_or_equiv
  _atom_site_type_symbol
  _atom_site_charge
         C1        1.0000    0.47880   0.52420   0.93843   Biso      1.000     C          -0.29903  
         C2        1.0000    0.26130   0.26130   0.83333   Biso      1.000     C          0.597966  
         C3        1.0000    0.57460   0.00000   0.50000   Biso      1.000     C          0.006205  
         C4        1.0000    0.26710   0.00000   0.50000   Biso      1.000     C          0.096312  
         C5        1.0000    0.73870   0.00000   0.50000   Biso      1.000     C          0.597846  
         C6        1.0000    0.62830   0.67750   0.93743   Biso      1.000     C          0.240436  
         C7        1.0000    0.00000   0.73870   0.16667   Biso      1.000     C          0.597965  
         C8        1.0000    0.04920   0.37170   0.27077   Biso      1.000     C          0.240364  
         C9        1.0000    0.04540   0.52120   0.27177   Biso      1.000     C          -0.299184           
         C10       1.0000    0.32250   0.95080   0.60410   Biso      1.000     C          0.240414  
         C11       1.0000    0.47580   0.95460   0.60510   Biso      1.000     C          -0.299089           
         C12       1.0000    0.95080   0.32250   0.06257   Biso      1.000     C          0.24044000000000001           
         C13       1.0000    0.95460   0.47580   0.06157   Biso      1.000     C          -0.299021           
         C14       1.0000    0.67750   0.62830   0.72923   Biso      1.000     C          0.24036   
         C15       1.0000    0.52420   0.47880   0.72823   Biso      1.000     C          -0.299185           
         C16       1.0000    0.73290   0.73290   0.83333   Biso      1.000     C          0.096285  
         C17       1.0000    0.37170   0.04920   0.39590   Biso      1.000     C          0.24041300000000002           
         C18       1.0000    0.00000   0.26710   0.16667   Biso      1.000     C          0.096285  
         C19       1.0000    0.00000   0.57460   0.16667   Biso      1.000     C          0.006166  
         C20       1.0000    0.52120   0.04540   0.39490   Biso      1.000     C          -0.299095           
         C21       1.0000    0.42540   0.42540   0.83333   Biso      1.000     C          0.006163  
         H1        1.0000    0.40300   0.49400   0.00133   Biso      1.000     H          0.144017  
         H2        1.0000    0.63000   0.77300   0.08333   Biso      1.000     H          0.471617  
         H3        1.0000    0.09100   0.59700   0.33467   Biso      1.000     H          0.144118  
         H4        1.0000    0.14300   0.37000   0.41667   Biso      1.000     H          0.471609  
         H5        1.0000    0.50600   0.90900   0.66800   Biso      1.000     H          0.144096  
         H6        1.0000    0.22700   0.85700   0.75000   Biso      1.000     H          0.4717    
         H7        1.0000    0.90900   0.50600   0.99867   Biso      1.000     H          0.144019  
         H8        1.0000    0.85700   0.22700   0.91667   Biso      1.000     H          0.471612  
         H9        1.0000    0.49400   0.40300   0.66533   Biso      1.000     H          0.144112  
         H10       1.0000    0.77300   0.63000   0.58333   Biso      1.000     H          0.471604  
         H11       1.0000    0.59700   0.09100   0.33200   Biso      1.000     H          0.1441    
         H12       1.0000    0.37000   0.14300   0.25000   Biso      1.000     H          0.47171   
         Mn1       1.0000    0.02779   0.02779   0.33333   Biso      1.000     Mn          1.0227979999999999  
         Mn2       1.0000    0.97221   0.00000   0.00000   Biso      1.000     Mn          1.022843  
         Mn3       1.0000    0.00000   0.97221   0.66667   Biso      1.000     Mn          1.022802  
         O1        1.0000    0.12060   0.00000   0.50000   Biso      1.000     O          -0.549281           
         O2        1.0000    0.21880   0.17330   0.93010   Biso      1.000     O          -0.587641           
         O3        1.0000    0.69290   0.78950   0.03364   Biso      1.000     O          -0.55643  
         O4        1.0000    0.95450   0.78120   0.26344   Biso      1.000     O          -0.587626           
         O5        1.0000    0.09660   0.30710   0.36698   Biso      1.000     O          -0.5562699999999999           
         O6        1.0000    0.82670   0.04550   0.59677   Biso      1.000     O          -0.5875670000000001           
         O7        1.0000    0.21050   0.90340   0.70031   Biso      1.000     O          -0.556441           
         O8        1.0000    0.04550   0.82670   0.06990   Biso      1.000     O          -0.587633           
         O9        1.0000    0.90340   0.21050   0.96636   Biso      1.000     O          -0.556423           
         O10       1.0000    0.17330   0.21880   0.73656   Biso      1.000     O          -0.5876319999999999           
         O11       1.0000    0.78950   0.69290   0.63302   Biso      1.000     O          -0.5562739999999999           
         O12       1.0000    0.78120   0.95450   0.40323   Biso      1.000     O          -0.587568           
         O13       1.0000    0.30710   0.09660   0.29969   Biso      1.000     O          -0.556442           
         O14       1.0000    0.87940   0.87940   0.83333   Biso      1.000     O          -0.549273           
         O15       1.0000    0.00000   0.12060   0.16667   Biso      1.000     O          -0.549272 