
##########################################################################
#               Crystallographic Information Format file
#               Produced by PyCifRW module
#
#  This is a CIF file.  CIF has been adopted by the International
#  Union of Crystallography as the standard for data archiving and
#  transmission.
#
#  For information on this file format, follow the CIF links at
#  http://www.iucr.org
##########################################################################

data_image0

_cell_length_a                          9.5731
_cell_length_b                          9.5731
_cell_length_c                          16.3828
_cell_angle_alpha                       87.258
_cell_angle_beta                        74.7977
_cell_angle_gamma                       117.994
_symmetry_space_group_name_H-M          'P 1'
_symmetry_int_tables_number             1
loop_
  _symmetry_equiv_pos_as_xyz
         'x, y, z' 
loop_
  _atom_site_label
  _atom_site_occupancy
  _atom_site_fract_x
  _atom_site_fract_y
  _atom_site_fract_z
  _atom_site_thermal_displace_type
  _atom_site_B_iso_or_equiv
  _atom_site_type_symbol
  _atom_site_charge
         C1        1.0000    0.30320   0.47840   0.38520   Biso      1.000     C          0.167655  
         C2        1.0000    0.22360   0.46300   0.85400   Biso      1.000     C          0.612707  
         C3        1.0000    0.32160   0.78580   0.91380   Biso      1.000     C          0.560883  
         C4        1.0000    0.99780   0.66440   0.76460   Biso      1.000     C          -0.13055899999999998          
         C5        1.0000    0.63640   0.31160   0.88520   Biso      1.000     C          0.165779  
         C6        1.0000    0.84710   0.36230   0.78060   Biso      1.000     C          0.112285  
         C7        1.0000    0.91910   0.04230   0.57080   Biso      1.000     C          -0.013307           
         C8        1.0000    0.82850   0.93230   0.52720   Biso      1.000     C          -0.14765799999999998          
         C9        1.0000    0.81700   0.07760   0.64600   Biso      1.000     C          0.6121340000000001  
         C10       1.0000    0.19960   0.23540   0.58620   Biso      1.000     C          0.560657  
         C11       1.0000    0.07100   0.23760   0.26460   Biso      1.000     C          -0.12991  
         C12       1.0000    0.35710   0.37230   0.28060   Biso      1.000     C          0.112977  
         C13       1.0000    0.95950   0.35570   0.97280   Biso      1.000     C          -0.147322           
         C14       1.0000    0.88690   0.51010   0.07080   Biso      1.000     C          -0.011995           
         C15       1.0000    0.04050   0.64430   0.02720   Biso      1.000     C          -0.147321           
         C16       1.0000    0.77640   0.53700   0.14600   Biso      1.000     C          0.612707  
         C17       1.0000    0.67840   0.21420   0.08620   Biso      1.000     C          0.560883  
         C18       1.0000    0.00220   0.33560   0.23540   Biso      1.000     C          -0.13055899999999998          
         C19       1.0000    0.36360   0.68840   0.11480   Biso      1.000     C          0.16577999999999998           
         C20       1.0000    0.15290   0.63770   0.21940   Biso      1.000     C          0.112285  
         C21       1.0000    0.08090   0.95770   0.42920   Biso      1.000     C          -0.013307           
         C22       1.0000    0.90690   0.88800   0.45610   Biso      1.000     C          -0.046498000000000005         
         C23       1.0000    0.17150   0.06770   0.47280   Biso      1.000     C          -0.14765799999999998          
         C24       1.0000    0.18300   0.92240   0.35400   Biso      1.000     C          0.612133  
         C25       1.0000    0.80040   0.76460   0.41380   Biso      1.000     C          0.560656  
         C26       1.0000    0.84410   0.36300   0.04390   Biso      1.000     C          -0.047448000000000004         
         C27       1.0000    0.15590   0.63700   0.95610   Biso      1.000     C          -0.047448000000000004         
         C28       1.0000    0.09310   0.11200   0.54390   Biso      1.000     C          -0.046498000000000005         
         C29       1.0000    0.64290   0.62770   0.71940   Biso      1.000     C          0.112977  
         C30       1.0000    0.69680   0.52160   0.61480   Biso      1.000     C          0.167656  
         C31       1.0000    0.92900   0.76240   0.73540   Biso      1.000     C          -0.12991  
         C32       1.0000    0.11310   0.48990   0.92920   Biso      1.000     C          -0.011994           
         H1        1.0000    0.87870   0.79510   0.78460   Biso      1.000     H          0.132396  
         H2        1.0000    0.01930   0.85920   0.69450   Biso      1.000     H          0.133974  
         H3        1.0000    0.58960   0.65920   0.76440   Biso      1.000     H          0.129552  
         H4        1.0000    0.93170   0.25810   0.95480   Biso      1.000     H          0.128636  
         H5        1.0000    0.07970   0.66330   0.71540   Biso      1.000     H          0.13200699999999999           
         H6        1.0000    0.05370   0.71380   0.80550   Biso      1.000     H          0.134904  
         H7        1.0000    0.53300   0.25380   0.92820   Biso      1.000     H          0.123544  
         H8        1.0000    0.92360   0.35400   0.73560   Biso      1.000     H          0.12901700000000002           
         H9        1.0000    0.71290   0.88650   0.54520   Biso      1.000     H          0.129148  
         H10       1.0000    0.12130   0.20490   0.21540   Biso      1.000     H          0.132396  
         H11       1.0000    0.68200   0.46120   0.57180   Biso      1.000     H          0.12302300000000001           
         H12       1.0000    0.98070   0.14080   0.30550   Biso      1.000     H          0.133974  
         H13       1.0000    0.28710   0.11350   0.45480   Biso      1.000     H          0.129148  
         H14       1.0000    0.46700   0.74620   0.07180   Biso      1.000     H          0.123544  
         H15       1.0000    0.94630   0.28620   0.19450   Biso      1.000     H          0.134904  
         H16       1.0000    0.92030   0.33670   0.28460   Biso      1.000     H          0.13200699999999999           
         H17       1.0000    0.07640   0.64600   0.26440   Biso      1.000     H          0.12901700000000002           
         H18       1.0000    0.06830   0.74190   0.04520   Biso      1.000     H          0.128636  
         H19       1.0000    0.41040   0.34080   0.23560   Biso      1.000     H          0.129552  
         H20       1.0000    0.31800   0.53880   0.42820   Biso      1.000     H          0.12302300000000001           
         N1        1.0000    0.70280   0.24020   0.83040   Biso      1.000     N          -0.32708000000000004          
         N2        1.0000    0.27040   0.53250   0.12770   Biso      1.000     N          -0.24524899999999997          
         N3        1.0000    0.13380   0.50030   0.19510   Biso      1.000     N          0.171789  
         N4        1.0000    0.42940   0.46680   0.33040   Biso      1.000     N          -0.32915900000000003          
         N5        1.0000    0.16020   0.39810   0.37230   Biso      1.000     N          -0.245324           
         N6        1.0000    0.19540   0.32890   0.30490   Biso      1.000     N          0.170913  
         N7        1.0000    0.29720   0.75980   0.16960   Biso      1.000     N          -0.32708000000000004          
         N8        1.0000    0.72960   0.46750   0.87230   Biso      1.000     N          -0.24524899999999997          
         N9        1.0000    0.83980   0.60190   0.62770   Biso      1.000     N          -0.245324           
         N10       1.0000    0.57060   0.53320   0.66960   Biso      1.000     N          -0.32916  
         N11       1.0000    0.80460   0.67110   0.69510   Biso      1.000     N          0.170913  
         N12       1.0000    0.86620   0.49970   0.80490   Biso      1.000     N          0.171789  
         O1        1.0000    0.57050   0.22570   0.14600   Biso      1.000     O          -0.534248           
         O2        1.0000    0.22930   0.82670   0.37020   Biso      1.000     O          -0.570619           
         O3        1.0000    0.22410   0.00310   0.28100   Biso      1.000     O          -0.591229           
         O4        1.0000    0.64550   0.08250   0.06200   Biso      1.000     O          -0.566689           
         O5        1.0000    0.12830   0.28350   0.64600   Biso      1.000     O          -0.534342           
         O6        1.0000    0.69690   0.59950   0.12980   Biso      1.000     O          -0.5711109999999999           
         O7        1.0000    0.78410   0.50510   0.21900   Biso      1.000     O          -0.591824           
         O8        1.0000    0.35550   0.29250   0.56200   Biso      1.000     O          -0.566973           
         O9        1.0000    0.77070   0.17330   0.62980   Biso      1.000     O          -0.570619           
         O10       1.0000    0.64450   0.70750   0.43800   Biso      1.000     O          -0.566973           
         O11       1.0000    0.35450   0.91750   0.93800   Biso      1.000     O          -0.5666899999999999           
         O12       1.0000    0.42950   0.77430   0.85400   Biso      1.000     O          -0.534248           
         O13       1.0000    0.30310   0.40050   0.87020   Biso      1.000     O          -0.5711109999999999           
         O14       1.0000    0.21590   0.49490   0.78100   Biso      1.000     O          -0.591824           
         O15       1.0000    0.87170   0.71650   0.35400   Biso      1.000     O          -0.534342           
         O16       1.0000    0.77590   0.99690   0.71900   Biso      1.000     O          -0.591229           
         Zn1       1.0000    0.38199   0.99435   0.17790   Biso      1.000     Zn          0.9018200000000001  
         Zn2       1.0000    0.67225   0.55989   0.32210   Biso      1.000     Zn          0.9027440000000001  
         Zn3       1.0000    0.61801   0.00565   0.82210   Biso      1.000     Zn          0.9018200000000001  
         Zn4       1.0000    0.32775   0.44011   0.67790   Biso      1.000     Zn          0.9027440000000001 