
##########################################################################
#               Crystallographic Information Format file
#               Produced by PyCifRW module
#
#  This is a CIF file.  CIF has been adopted by the International
#  Union of Crystallography as the standard for data archiving and
#  transmission.
#
#  For information on this file format, follow the CIF links at
#  http://www.iucr.org
##########################################################################

data_image0

_cell_length_a                          14.865
_cell_length_b                          14.983
_cell_length_c                          14.983
_cell_angle_alpha                       120
_cell_angle_beta                        90
_cell_angle_gamma                       90
_symmetry_space_group_name_H-M          'P 1'
_symmetry_int_tables_number             1
loop_
  _symmetry_equiv_pos_as_xyz
         'x, y, z' 
loop_
  _atom_site_label
  _atom_site_occupancy
  _atom_site_fract_x
  _atom_site_fract_y
  _atom_site_fract_z
  _atom_site_thermal_displace_type
  _atom_site_B_iso_or_equiv
  _atom_site_type_symbol
  _atom_site_charge
         C1        1.0000    0.14000   0.48600   0.35650   Biso      1.000     C          0.668975  
         C2        1.0000    0.64000   0.51400   0.87050   Biso      1.000     C          0.6689689999999999  
         C3        1.0000    0.69830   0.26650   0.41530   Biso      1.000     C          -0.16087100000000001          
         C4        1.0000    0.64000   0.35650   0.48600   Biso      1.000     C          0.668963  
         C5        1.0000    0.69830   0.14880   0.73350   Biso      1.000     C          -0.160867           
         C6        1.0000    0.64000   0.12950   0.64350   Biso      1.000     C          0.668975  
         C7        1.0000    0.69830   0.41530   0.14880   Biso      1.000     C          -0.16086199999999998          
         C8        1.0000    0.64000   0.48600   0.12950   Biso      1.000     C          0.6689689999999999  
         C9        1.0000    0.69830   0.73350   0.58470   Biso      1.000     C          -0.16087100000000001          
         C10       1.0000    0.64000   0.64350   0.51400   Biso      1.000     C          0.668963  
         C11       1.0000    0.69830   0.58470   0.85120   Biso      1.000     C          -0.160863           
         C12       1.0000    0.69830   0.85120   0.26650   Biso      1.000     C          -0.160866           
         C13       1.0000    0.80170   0.73350   0.14880   Biso      1.000     C          -0.16086099999999998          
         C14       1.0000    0.86000   0.64350   0.12950   Biso      1.000     C          0.66897   
         C15       1.0000    0.80170   0.85120   0.58470   Biso      1.000     C          -0.16087100000000001          
         C16       1.0000    0.80170   0.41530   0.26650   Biso      1.000     C          -0.160867           
         C17       1.0000    0.86000   0.48600   0.35650   Biso      1.000     C          0.668974  
         C18       1.0000    0.80170   0.26650   0.85120   Biso      1.000     C          -0.16086199999999998          
         C19       1.0000    0.86000   0.35650   0.87050   Biso      1.000     C          0.66897   
         C20       1.0000    0.80170   0.14880   0.41530   Biso      1.000     C          -0.16087100000000001          
         C21       1.0000    0.86000   0.12950   0.48600   Biso      1.000     C          0.668963  
         C22       1.0000    0.64000   0.87050   0.35650   Biso      1.000     C          0.668975  
         C23       1.0000    0.80170   0.58470   0.73350   Biso      1.000     C          -0.160867           
         C24       1.0000    0.19830   0.41530   0.26650   Biso      1.000     C          -0.160867           
         C25       1.0000    0.19830   0.85120   0.58470   Biso      1.000     C          -0.16087100000000001          
         C26       1.0000    0.30170   0.41530   0.14880   Biso      1.000     C          -0.160863           
         C27       1.0000    0.36000   0.48600   0.12950   Biso      1.000     C          0.6689689999999999  
         C28       1.0000    0.30170   0.73350   0.58470   Biso      1.000     C          -0.16087100000000001          
         C29       1.0000    0.36000   0.64350   0.51400   Biso      1.000     C          0.668963  
         C30       1.0000    0.30170   0.85120   0.26650   Biso      1.000     C          -0.160867           
         C31       1.0000    0.36000   0.87050   0.35650   Biso      1.000     C          0.668975  
         C32       1.0000    0.30170   0.58470   0.85120   Biso      1.000     C          -0.16086199999999998          
         C33       1.0000    0.36000   0.51400   0.87050   Biso      1.000     C          0.6689689999999999  
         C34       1.0000    0.30170   0.26650   0.41530   Biso      1.000     C          -0.16087100000000001          
         C35       1.0000    0.14000   0.87050   0.51400   Biso      1.000     C          0.668963  
         C36       1.0000    0.36000   0.35650   0.48600   Biso      1.000     C          0.668963  
         C37       1.0000    0.36000   0.12950   0.64350   Biso      1.000     C          0.668975  
         C38       1.0000    0.19830   0.26650   0.85120   Biso      1.000     C          -0.16086099999999998          
         C39       1.0000    0.14000   0.35650   0.87050   Biso      1.000     C          0.66897   
         C40       1.0000    0.19830   0.14880   0.41530   Biso      1.000     C          -0.16087100000000001          
         C41       1.0000    0.14000   0.12950   0.48600   Biso      1.000     C          0.668963  
         C42       1.0000    0.19830   0.58470   0.73350   Biso      1.000     C          -0.160867           
         C43       1.0000    0.14000   0.51400   0.64350   Biso      1.000     C          0.668974  
         C44       1.0000    0.19830   0.73350   0.14880   Biso      1.000     C          -0.16086199999999998          
         C45       1.0000    0.14000   0.64350   0.12950   Biso      1.000     C          0.66897   
         C46       1.0000    0.30170   0.14880   0.73350   Biso      1.000     C          -0.160866           
         C47       1.0000    0.86000   0.51400   0.64350   Biso      1.000     C          0.668975  
         C48       1.0000    0.86000   0.87050   0.51400   Biso      1.000     C          0.668963  
         Cu1       1.0000    0.00000   0.50000   0.50000   Biso      1.000     Cu          0.9858299999999999  
         Cu2       1.0000    0.00000   0.00000   0.50000   Biso      1.000     Cu          0.985824  
         Cu3       1.0000    0.00000   0.50000   0.00000   Biso      1.000     Cu          0.985822  
         Cu4       1.0000    0.50000   0.00000   0.50000   Biso      1.000     Cu          0.985833  
         Cu5       1.0000    0.50000   0.50000   0.50000   Biso      1.000     Cu          0.98582   
         Cu6       1.0000    0.50000   0.50000   0.00000   Biso      1.000     Cu          0.98582   
         H1        1.0000    0.33910   0.20950   0.36740   Biso      1.000     H          0.12001600000000001           
         H2        1.0000    0.73730   0.37580   0.08990   Biso      1.000     H          0.110608  
         H3        1.0000    0.66090   0.36740   0.15790   Biso      1.000     H          0.12000799999999999           
         H4        1.0000    0.73730   0.71410   0.62420   Biso      1.000     H          0.11061199999999999           
         H5        1.0000    0.66090   0.79050   0.63260   Biso      1.000     H          0.12001600000000001           
         H6        1.0000    0.73730   0.91010   0.28590   Biso      1.000     H          0.110606  
         H7        1.0000    0.66090   0.84210   0.20950   Biso      1.000     H          0.120012  
         H8        1.0000    0.76270   0.71410   0.08990   Biso      1.000     H          0.110607  
         H9        1.0000    0.83910   0.79050   0.15790   Biso      1.000     H          0.12000699999999999           
         H10       1.0000    0.76270   0.91010   0.62420   Biso      1.000     H          0.11061199999999999           
         H11       1.0000    0.26270   0.08990   0.71410   Biso      1.000     H          0.110606  
         H12       1.0000    0.76270   0.37580   0.28590   Biso      1.000     H          0.110607  
         H13       1.0000    0.66090   0.15790   0.79050   Biso      1.000     H          0.120012  
         H14       1.0000    0.76270   0.28590   0.91010   Biso      1.000     H          0.110608  
         H15       1.0000    0.83910   0.20950   0.84210   Biso      1.000     H          0.12000699999999999           
         H16       1.0000    0.76270   0.08990   0.37580   Biso      1.000     H          0.11061199999999999           
         H17       1.0000    0.83910   0.15790   0.36740   Biso      1.000     H          0.12001500000000001           
         H18       1.0000    0.76270   0.62420   0.71410   Biso      1.000     H          0.110607  
         H19       1.0000    0.83910   0.63260   0.79050   Biso      1.000     H          0.12001400000000001           
         H20       1.0000    0.83910   0.84210   0.63260   Biso      1.000     H          0.12001500000000001           
         H21       1.0000    0.73730   0.08990   0.71410   Biso      1.000     H          0.110606  
         H22       1.0000    0.83910   0.36740   0.20950   Biso      1.000     H          0.12001400000000001           
         H23       1.0000    0.73730   0.28590   0.37580   Biso      1.000     H          0.11061199999999999           
         H24       1.0000    0.66090   0.20950   0.36740   Biso      1.000     H          0.12001600000000001           
         H25       1.0000    0.26270   0.28590   0.37580   Biso      1.000     H          0.11061199999999999           
         H26       1.0000    0.33910   0.63260   0.84210   Biso      1.000     H          0.12000799999999999           
         H27       1.0000    0.26270   0.62420   0.91010   Biso      1.000     H          0.110608  
         H28       1.0000    0.33910   0.84210   0.20950   Biso      1.000     H          0.120012  
         H29       1.0000    0.26270   0.91010   0.28590   Biso      1.000     H          0.110607  
         H30       1.0000    0.33910   0.79050   0.63260   Biso      1.000     H          0.12001600000000001           
         H31       1.0000    0.26270   0.71410   0.62420   Biso      1.000     H          0.11061199999999999           
         H32       1.0000    0.26270   0.37580   0.08990   Biso      1.000     H          0.110608  
         H33       1.0000    0.33910   0.15790   0.79050   Biso      1.000     H          0.12001099999999999           
         H34       1.0000    0.23730   0.28590   0.91010   Biso      1.000     H          0.110607  
         H35       1.0000    0.16090   0.20950   0.84210   Biso      1.000     H          0.12000599999999999           
         H36       1.0000    0.23730   0.08990   0.37580   Biso      1.000     H          0.11061199999999999           
         H37       1.0000    0.33910   0.36740   0.15790   Biso      1.000     H          0.12000799999999999           
         H38       1.0000    0.23730   0.62420   0.71410   Biso      1.000     H          0.110607  
         H39       1.0000    0.66090   0.63260   0.84210   Biso      1.000     H          0.12000799999999999           
         H40       1.0000    0.16090   0.15790   0.36740   Biso      1.000     H          0.12001500000000001           
         H41       1.0000    0.73730   0.62420   0.91010   Biso      1.000     H          0.110608  
         H42       1.0000    0.16090   0.36740   0.20950   Biso      1.000     H          0.12001400000000001           
         H43       1.0000    0.23730   0.37580   0.28590   Biso      1.000     H          0.110607  
         H44       1.0000    0.16090   0.84210   0.63260   Biso      1.000     H          0.12001500000000001           
         H45       1.0000    0.16090   0.79050   0.15790   Biso      1.000     H          0.12000699999999999           
         H46       1.0000    0.23730   0.71410   0.08990   Biso      1.000     H          0.110608  
         H47       1.0000    0.16090   0.63260   0.79050   Biso      1.000     H          0.12001400000000001           
         H48       1.0000    0.23730   0.91010   0.62420   Biso      1.000     H          0.11061199999999999           
         O1        1.0000    0.40760   0.39260   0.44320   Biso      1.000     O          -0.566312           
         O2        1.0000    0.40760   0.05060   0.60740   Biso      1.000     O          -0.5663229999999999           
         O3        1.0000    0.35730   0.38680   0.58040   Biso      1.000     O          -0.640409           
         O4        1.0000    0.40760   0.55680   0.94940   Biso      1.000     O          -0.566322           
         O5        1.0000    0.35730   0.19360   0.61320   Biso      1.000     O          -0.640424           
         O6        1.0000    0.14270   0.38680   0.80640   Biso      1.000     O          -0.64041  
         O7        1.0000    0.14270   0.41960   0.61320   Biso      1.000     O          -0.640422           
         O8        1.0000    0.14270   0.19360   0.58040   Biso      1.000     O          -0.64041  
         O9        1.0000    0.09240   0.05060   0.44320   Biso      1.000     O          -0.5663130000000001           
         O10       1.0000    0.14270   0.61320   0.19360   Biso      1.000     O          -0.64041  
         O11       1.0000    0.35730   0.41960   0.80640   Biso      1.000     O          -0.64041  
         O12       1.0000    0.09240   0.55680   0.60740   Biso      1.000     O          -0.566322           
         O13       1.0000    0.09240   0.39260   0.94940   Biso      1.000     O          -0.5663239999999999           
         O14       1.0000    0.40760   0.94940   0.39260   Biso      1.000     O          -0.5663229999999999           
         O15       1.0000    0.25000   0.76355   0.23645   Biso      1.000     O          -0.223329           
         O16       1.0000    0.40760   0.60740   0.55680   Biso      1.000     O          -0.566312           
         O17       1.0000    0.35730   0.61320   0.41960   Biso      1.000     O          -0.640409           
         O18       1.0000    0.40760   0.44320   0.05060   Biso      1.000     O          -0.566322           
         O19       1.0000    0.35730   0.58040   0.19360   Biso      1.000     O          -0.64041  
         O20       1.0000    0.75000   0.52710   0.76355   Biso      1.000     O          -0.223329           
         O21       1.0000    0.75000   0.23645   0.47290   Biso      1.000     O          -0.22330999999999998          
         O22       1.0000    0.75000   0.23645   0.76355   Biso      1.000     O          -0.223329           
         O23       1.0000    0.75000   0.47290   0.23645   Biso      1.000     O          -0.223329           
         O24       1.0000    0.75000   0.76355   0.52710   Biso      1.000     O          -0.223309           
         O25       1.0000    0.75000   0.76355   0.23645   Biso      1.000     O          -0.223329           
         O26       1.0000    0.25000   0.52710   0.76355   Biso      1.000     O          -0.223329           
         O27       1.0000    0.25000   0.76355   0.52710   Biso      1.000     O          -0.22330999999999998          
         O28       1.0000    0.09240   0.60740   0.05060   Biso      1.000     O          -0.5663229999999999           
         O29       1.0000    0.25000   0.47290   0.23645   Biso      1.000     O          -0.223329           
         O30       1.0000    0.35730   0.80640   0.38680   Biso      1.000     O          -0.640423           
         O31       1.0000    0.14270   0.80640   0.41960   Biso      1.000     O          -0.64041  
         O32       1.0000    0.25000   0.23645   0.76355   Biso      1.000     O          -0.223329           
         O33       1.0000    0.14270   0.58040   0.38680   Biso      1.000     O          -0.640422           
         O34       1.0000    0.25000   0.23645   0.47290   Biso      1.000     O          -0.223309           
         O35       1.0000    0.90760   0.55680   0.60740   Biso      1.000     O          -0.566322           
         O36       1.0000    0.85730   0.41960   0.61320   Biso      1.000     O          -0.640422           
         O37       1.0000    0.90760   0.05060   0.44320   Biso      1.000     O          -0.5663130000000001           
         O38       1.0000    0.85730   0.19360   0.58040   Biso      1.000     O          -0.64041  
         O39       1.0000    0.90760   0.39260   0.94940   Biso      1.000     O          -0.5663229999999999           
         O40       1.0000    0.85730   0.38680   0.80640   Biso      1.000     O          -0.64041  
         O41       1.0000    0.90760   0.44320   0.39260   Biso      1.000     O          -0.5663229999999999           
         O42       1.0000    0.85730   0.58040   0.38680   Biso      1.000     O          -0.640422           
         O43       1.0000    0.90760   0.94940   0.55680   Biso      1.000     O          -0.5663130000000001           
         O44       1.0000    0.85730   0.80640   0.41960   Biso      1.000     O          -0.64041  
         O45       1.0000    0.09240   0.94940   0.55680   Biso      1.000     O          -0.566312           
         O46       1.0000    0.85730   0.61320   0.19360   Biso      1.000     O          -0.64041  
         O47       1.0000    0.90760   0.60740   0.05060   Biso      1.000     O          -0.5663229999999999           
         O48       1.0000    0.64270   0.80640   0.38680   Biso      1.000     O          -0.640424           
         O49       1.0000    0.09240   0.44320   0.39260   Biso      1.000     O          -0.566322           
         O50       1.0000    0.64270   0.41960   0.80640   Biso      1.000     O          -0.64041  
         O51       1.0000    0.59240   0.55680   0.94940   Biso      1.000     O          -0.566322           
         O52       1.0000    0.59240   0.94940   0.39260   Biso      1.000     O          -0.5663229999999999           
         O53       1.0000    0.59240   0.39260   0.44320   Biso      1.000     O          -0.566312           
         O54       1.0000    0.64270   0.38680   0.58040   Biso      1.000     O          -0.640408           
         O55       1.0000    0.59240   0.05060   0.60740   Biso      1.000     O          -0.5663229999999999           
         O56       1.0000    0.64270   0.58040   0.19360   Biso      1.000     O          -0.64041  
         O57       1.0000    0.59240   0.44320   0.05060   Biso      1.000     O          -0.566322           
         O58       1.0000    0.64270   0.61320   0.41960   Biso      1.000     O          -0.640409           
         O59       1.0000    0.59240   0.60740   0.55680   Biso      1.000     O          -0.566312           
         O60       1.0000    0.64270   0.19360   0.61320   Biso      1.000     O          -0.640423           
         Sm1       1.0000    0.25000   0.33333   0.66666   Biso      1.000     Sm          1.9992889999999999  
         Sm2       1.0000    0.25000   0.66667   0.33334   Biso      1.000     Sm          1.9992889999999999  
         Sm3       1.0000    0.75000   0.66667   0.33334   Biso      1.000     Sm          1.9992889999999999  
         Sm4       1.0000    0.75000   0.33333   0.66666   Biso      1.000     Sm          1.9992889999999999 