
##########################################################################
#               Crystallographic Information Format file
#               Produced by PyCifRW module
#
#  This is a CIF file.  CIF has been adopted by the International
#  Union of Crystallography as the standard for data archiving and
#  transmission.
#
#  For information on this file format, follow the CIF links at
#  http://www.iucr.org
##########################################################################

data_image0

_cell_length_a                          9.105
_cell_length_b                          17.492
_cell_length_c                          17.492
_cell_angle_alpha                       90
_cell_angle_beta                        90
_cell_angle_gamma                       90
_symmetry_space_group_name_H-M          'P 1'
_symmetry_int_tables_number             1
loop_
  _symmetry_equiv_pos_as_xyz
         'x, y, z' 
loop_
  _atom_site_label
  _atom_site_occupancy
  _atom_site_fract_x
  _atom_site_fract_y
  _atom_site_fract_z
  _atom_site_thermal_displace_type
  _atom_site_B_iso_or_equiv
  _atom_site_type_symbol
  _atom_site_charge
         C1        1.0000    0.17310   0.86810   0.18145   Biso      1.000     C          -0.07937999999999999          
         C2        1.0000    0.82690   0.81855   0.36810   Biso      1.000     C          -0.079381           
         C3        1.0000    0.72520   0.81870   0.42770   Biso      1.000     C          -0.013706           
         C4        1.0000    0.65880   0.89050   0.45840   Biso      1.000     C          0.607205  
         C5        1.0000    0.82690   0.68145   0.13190   Biso      1.000     C          -0.07938200000000001          
         C6        1.0000    0.72520   0.68130   0.07230   Biso      1.000     C          -0.013705000000000002         
         C7        1.0000    0.65880   0.60950   0.04160   Biso      1.000     C          0.607206  
         C8        1.0000    0.82690   0.13190   0.81855   Biso      1.000     C          -0.07937999999999999          
         C9        1.0000    0.72520   0.07230   0.81870   Biso      1.000     C          -0.013711000000000001         
         C10       1.0000    0.65880   0.04160   0.89050   Biso      1.000     C          0.6072069999999999  
         C11       1.0000    0.82690   0.36810   0.68145   Biso      1.000     C          -0.079378           
         C12       1.0000    0.72520   0.42770   0.68130   Biso      1.000     C          -0.013709           
         C13       1.0000    0.65880   0.45840   0.60950   Biso      1.000     C          0.607206  
         C14       1.0000    0.17310   0.18145   0.86810   Biso      1.000     C          -0.079381           
         C15       1.0000    0.27480   0.92770   0.18130   Biso      1.000     C          -0.013705000000000002         
         C16       1.0000    0.27480   0.18130   0.92770   Biso      1.000     C          -0.013713           
         C17       1.0000    0.17310   0.31855   0.63190   Biso      1.000     C          -0.07938400000000001          
         C18       1.0000    0.27480   0.31870   0.57230   Biso      1.000     C          -0.013713           
         C19       1.0000    0.34120   0.39050   0.54160   Biso      1.000     C          0.607205  
         C20       1.0000    0.17310   0.86810   0.31855   Biso      1.000     C          -0.07937999999999999          
         C21       1.0000    0.27480   0.92770   0.31870   Biso      1.000     C          -0.013705000000000002         
         C22       1.0000    0.34120   0.95840   0.39050   Biso      1.000     C          0.607205  
         C23       1.0000    0.17310   0.63190   0.18145   Biso      1.000     C          -0.079381           
         C24       1.0000    0.27480   0.57230   0.18130   Biso      1.000     C          -0.013705000000000002         
         C25       1.0000    0.34120   0.54160   0.10950   Biso      1.000     C          0.607205  
         C26       1.0000    0.17310   0.18145   0.63190   Biso      1.000     C          -0.079381           
         C27       1.0000    0.27480   0.18130   0.57230   Biso      1.000     C          -0.013713           
         C28       1.0000    0.34120   0.10950   0.54160   Biso      1.000     C          0.607206  
         C29       1.0000    0.17310   0.31855   0.86810   Biso      1.000     C          -0.07938400000000001          
         C30       1.0000    0.34120   0.10950   0.95840   Biso      1.000     C          0.607206  
         C31       1.0000    0.34120   0.95840   0.10950   Biso      1.000     C          0.607205  
         C32       1.0000    0.17310   0.63190   0.31855   Biso      1.000     C          -0.079381           
         C33       1.0000    0.27480   0.57230   0.31870   Biso      1.000     C          -0.013705000000000002         
         C34       1.0000    0.32330   0.54270   0.25000   Biso      1.000     C          -0.10653900000000001          
         C35       1.0000    0.12050   0.66250   0.25000   Biso      1.000     C          -0.201856           
         C36       1.0000    0.32330   0.95730   0.25000   Biso      1.000     C          -0.10653800000000001          
         C37       1.0000    0.12050   0.83750   0.25000   Biso      1.000     C          -0.201856           
         C38       1.0000    0.32330   0.25000   0.54270   Biso      1.000     C          -0.106549           
         C39       1.0000    0.12050   0.25000   0.66250   Biso      1.000     C          -0.20186099999999998          
         C40       1.0000    0.32330   0.25000   0.95730   Biso      1.000     C          -0.10655  
         C41       1.0000    0.12050   0.25000   0.83750   Biso      1.000     C          -0.20185999999999998          
         C42       1.0000    0.67670   0.45730   0.75000   Biso      1.000     C          -0.106544           
         C43       1.0000    0.87950   0.33750   0.75000   Biso      1.000     C          -0.201856           
         C44       1.0000    0.67670   0.04270   0.75000   Biso      1.000     C          -0.106546           
         C45       1.0000    0.87950   0.16250   0.75000   Biso      1.000     C          -0.20185899999999998          
         C46       1.0000    0.67670   0.75000   0.04270   Biso      1.000     C          -0.10654100000000001          
         C47       1.0000    0.87950   0.75000   0.16250   Biso      1.000     C          -0.201856           
         C48       1.0000    0.67670   0.75000   0.45730   Biso      1.000     C          -0.10654100000000001          
         C49       1.0000    0.87950   0.75000   0.33750   Biso      1.000     C          -0.201856           
         C50       1.0000    0.65880   0.45840   0.89050   Biso      1.000     C          0.607206  
         C51       1.0000    0.72520   0.42770   0.81870   Biso      1.000     C          -0.013708000000000001         
         C52       1.0000    0.82690   0.36810   0.81855   Biso      1.000     C          -0.079378           
         C53       1.0000    0.65880   0.04160   0.60950   Biso      1.000     C          0.607206  
         C54       1.0000    0.72520   0.07230   0.68130   Biso      1.000     C          -0.013711000000000001         
         C55       1.0000    0.82690   0.13190   0.68145   Biso      1.000     C          -0.07937999999999999          
         C56       1.0000    0.65880   0.60950   0.45840   Biso      1.000     C          0.607206  
         C57       1.0000    0.72520   0.68130   0.42770   Biso      1.000     C          -0.013705000000000002         
         C58       1.0000    0.82690   0.68145   0.36810   Biso      1.000     C          -0.07938200000000001          
         C59       1.0000    0.65880   0.89050   0.04160   Biso      1.000     C          0.607206  
         C60       1.0000    0.72520   0.81870   0.07230   Biso      1.000     C          -0.013705000000000002         
         C61       1.0000    0.82690   0.81855   0.13190   Biso      1.000     C          -0.079381           
         C62       1.0000    0.34120   0.54160   0.39050   Biso      1.000     C          0.607205  
         C63       1.0000    0.27480   0.31870   0.92770   Biso      1.000     C          -0.013712           
         C64       1.0000    0.34120   0.39050   0.95840   Biso      1.000     C          0.607205  
         Cu1       1.0000    0.41513   0.95628   0.54372   Biso      1.000     Cu          0.8878860000000001  
         Cu2       1.0000    0.41513   0.54372   0.95628   Biso      1.000     Cu          0.887891  
         Cu3       1.0000    0.41513   0.95628   0.95628   Biso      1.000     Cu          0.8878879999999999  
         Cu4       1.0000    0.41513   0.54372   0.54372   Biso      1.000     Cu          0.88789   
         Cu5       1.0000    0.58487   0.04372   0.04372   Biso      1.000     Cu          0.887893  
         Cu6       1.0000    0.58487   0.45628   0.45628   Biso      1.000     Cu          0.8878950000000001  
         Cu7       1.0000    0.58487   0.04372   0.45628   Biso      1.000     Cu          0.8878950000000001  
         Cu8       1.0000    0.58487   0.45628   0.04372   Biso      1.000     Cu          0.8878940000000001  
         H1        1.0000    0.86010   0.86480   0.34830   Biso      1.000     H          0.11546400000000001           
         H2        1.0000    0.86010   0.63520   0.15170   Biso      1.000     H          0.11546400000000001           
         H3        1.0000    0.86010   0.15170   0.86480   Biso      1.000     H          0.11546   
         H4        1.0000    0.86010   0.34830   0.63520   Biso      1.000     H          0.115461  
         H5        1.0000    0.13990   0.13520   0.84830   Biso      1.000     H          0.11546   
         H6        1.0000    0.13990   0.36480   0.65170   Biso      1.000     H          0.11546   
         H7        1.0000    0.13990   0.84830   0.36480   Biso      1.000     H          0.11546300000000001           
         H8        1.0000    0.13990   0.65170   0.13520   Biso      1.000     H          0.11546400000000001           
         H9        1.0000    0.38960   0.50220   0.25000   Biso      1.000     H          0.133942  
         H10       1.0000    0.13990   0.36480   0.84830   Biso      1.000     H          0.11546   
         H11       1.0000    0.13990   0.13520   0.65170   Biso      1.000     H          0.11545899999999999           
         H12       1.0000    0.38960   0.25000   0.50220   Biso      1.000     H          0.133936  
         H13       1.0000    0.38960   0.25000   0.99780   Biso      1.000     H          0.133936  
         H14       1.0000    0.61040   0.49780   0.75000   Biso      1.000     H          0.133941  
         H15       1.0000    0.61040   0.00220   0.75000   Biso      1.000     H          0.133938  
         H16       1.0000    0.61040   0.75000   0.00220   Biso      1.000     H          0.133943  
         H17       1.0000    0.38960   0.99780   0.25000   Biso      1.000     H          0.133942  
         H18       1.0000    0.86010   0.34830   0.86480   Biso      1.000     H          0.115461  
         H19       1.0000    0.86010   0.15170   0.63520   Biso      1.000     H          0.11546   
         H20       1.0000    0.86010   0.63520   0.34830   Biso      1.000     H          0.11546400000000001           
         H21       1.0000    0.86010   0.86480   0.15170   Biso      1.000     H          0.11546400000000001           
         H22       1.0000    0.13990   0.65170   0.36480   Biso      1.000     H          0.11546400000000001           
         H23       1.0000    0.13990   0.84830   0.13520   Biso      1.000     H          0.11546300000000001           
         H24       1.0000    0.61040   0.75000   0.49780   Biso      1.000     H          0.133943  
         O1        1.0000    0.70450   0.06750   0.54700   Biso      1.000     O          -0.524673           
         O2        1.0000    0.44110   0.11780   0.49379   Biso      1.000     O          -0.544445           
         O3        1.0000    0.29550   0.04700   0.56750   Biso      1.000     O          -0.524673           
         O4        1.0000    0.44110   0.38220   0.00621   Biso      1.000     O          -0.5444439999999999           
         O5        1.0000    0.29550   0.45300   0.93250   Biso      1.000     O          -0.524673           
         O6        1.0000    0.44110   0.00621   0.11780   Biso      1.000     O          -0.544446           
         O7        1.0000    0.29550   0.93250   0.04700   Biso      1.000     O          -0.524674           
         O8        1.0000    0.55890   0.88220   0.99379   Biso      1.000     O          -0.544445           
         O9        1.0000    0.29550   0.56750   0.45300   Biso      1.000     O          -0.524673           
         O10       1.0000    0.70450   0.95300   0.06750   Biso      1.000     O          -0.524675           
         O11       1.0000    0.55890   0.61780   0.50621   Biso      1.000     O          -0.544445           
         O12       1.0000    0.70450   0.54700   0.43250   Biso      1.000     O          -0.524675           
         O13       1.0000    0.29550   0.56750   0.04700   Biso      1.000     O          -0.524673           
         O14       1.0000    0.55890   0.99379   0.61780   Biso      1.000     O          -0.5444439999999999           
         O15       1.0000    0.44110   0.49379   0.38220   Biso      1.000     O          -0.544445           
         O16       1.0000    0.44110   0.49379   0.11780   Biso      1.000     O          -0.544445           
         O17       1.0000    0.70450   0.43250   0.54700   Biso      1.000     O          -0.524673           
         O18       1.0000    0.44110   0.00621   0.38220   Biso      1.000     O          -0.544446           
         O19       1.0000    0.55890   0.50621   0.88220   Biso      1.000     O          -0.5444439999999999           
         O20       1.0000    0.55890   0.88220   0.50621   Biso      1.000     O          -0.544445           
         O21       1.0000    0.70450   0.95300   0.43250   Biso      1.000     O          -0.524675           
         O22       1.0000    0.55890   0.61780   0.99379   Biso      1.000     O          -0.544445           
         O23       1.0000    0.29550   0.93250   0.45300   Biso      1.000     O          -0.524674           
         O24       1.0000    0.55890   0.99379   0.88220   Biso      1.000     O          -0.5444439999999999           
         O25       1.0000    0.70450   0.54700   0.06750   Biso      1.000     O          -0.524675           
         O26       1.0000    0.55890   0.50621   0.61780   Biso      1.000     O          -0.5444439999999999           
         O27       1.0000    0.44110   0.11780   0.00621   Biso      1.000     O          -0.544445           
         O28       1.0000    0.29550   0.04700   0.93250   Biso      1.000     O          -0.524673           
         O29       1.0000    0.44110   0.38220   0.49379   Biso      1.000     O          -0.5444439999999999           
         O30       1.0000    0.29550   0.45300   0.56750   Biso      1.000     O          -0.524672           
         O31       1.0000    0.70450   0.06750   0.95300   Biso      1.000     O          -0.524674           
         O32       1.0000    0.70450   0.43250   0.95300   Biso      1.000     O          -0.524672           
         Si1       1.0000    0.00000   0.75000   0.25000   Biso      1.000     Si          0.6625949999999999  
         Si2       1.0000    0.00000   0.25000   0.75000   Biso      1.000     Si          0.6625979999999999 