
##########################################################################
#               Crystallographic Information Format file
#               Produced by PyCifRW module
#
#  This is a CIF file.  CIF has been adopted by the International
#  Union of Crystallography as the standard for data archiving and
#  transmission.
#
#  For information on this file format, follow the CIF links at
#  http://www.iucr.org
##########################################################################

data_image0

_cell_length_a                          11.711
_cell_length_b                          11.711
_cell_length_c                          17.1962
_cell_angle_alpha                       95.325
_cell_angle_beta                        95.325
_cell_angle_gamma                       105.779
_symmetry_space_group_name_H-M          'P 1'
_symmetry_int_tables_number             1
loop_
  _symmetry_equiv_pos_as_xyz
         'x, y, z' 
loop_
  _atom_site_label
  _atom_site_occupancy
  _atom_site_fract_x
  _atom_site_fract_y
  _atom_site_fract_z
  _atom_site_thermal_displace_type
  _atom_site_B_iso_or_equiv
  _atom_site_type_symbol
  _atom_site_charge
         C1        1.0000    0.43806   0.44154   0.92220   Biso      1.000     C          -0.18518099999999998          
         C2        1.0000    0.54620   0.91820   0.94990   Biso      1.000     C          -0.19028299999999998          
         C3        1.0000    0.42920   0.94640   0.92260   Biso      1.000     C          -0.11529600000000001          
         C4        1.0000    0.41107   0.93393   0.83330   Biso      1.000     C          0.634966  
         C5        1.0000    0.11050   0.07830   0.47840   Biso      1.000     C          -0.194553           
         C6        1.0000    0.01220   0.92960   0.56540   Biso      1.000     C          -0.202342           
         C7        1.0000    0.10880   0.96080   0.51160   Biso      1.000     C          -0.11691900000000001          
         C8        1.0000    0.23250   0.96370   0.54910   Biso      1.000     C          0.626869  
         C9        1.0000    0.73700   0.26920   0.70630   Biso      1.000     C          -0.19278499999999998          
         C10       1.0000    0.86698   0.12802   0.70500   Biso      1.000     C          -0.197678           
         C11       1.0000    0.75475   0.15305   0.66607   Biso      1.000     C          -0.112846           
         C12       1.0000    0.64212   0.05248   0.66721   Biso      1.000     C          0.617788  
         C13       1.0000    0.55846   0.56194   0.57780   Biso      1.000     C          -0.18518099999999998          
         C14       1.0000    0.43738   0.56482   0.45020   Biso      1.000     C          -0.191401           
         C15       1.0000    0.43230   0.07110   0.96000   Biso      1.000     C          -0.19706600000000002          
         C16       1.0000    0.44541   0.58699   0.53957   Biso      1.000     C          -0.12735  
         C17       1.0000    0.92890   0.56770   0.54000   Biso      1.000     C          -0.19706700000000002          
         C18       1.0000    0.08180   0.45380   0.55010   Biso      1.000     C          -0.19028299999999998          
         C19       1.0000    0.05360   0.57080   0.57740   Biso      1.000     C          -0.11529400000000001          
         C20       1.0000    0.06607   0.58893   0.66670   Biso      1.000     C          0.6349739999999999  
         C21       1.0000    0.92170   0.88950   0.02160   Biso      1.000     C          -0.194552           
         C22       1.0000    0.07040   0.98780   0.93460   Biso      1.000     C          -0.202342           
         C23       1.0000    0.03920   0.89120   0.98840   Biso      1.000     C          -0.11691900000000001          
         C24       1.0000    0.03630   0.76750   0.95090   Biso      1.000     C          0.626868  
         C25       1.0000    0.73080   0.26300   0.79370   Biso      1.000     C          -0.19279200000000002          
         C26       1.0000    0.87198   0.13302   0.79500   Biso      1.000     C          -0.197678           
         C27       1.0000    0.84695   0.24525   0.83393   Biso      1.000     C          -0.112845           
         C28       1.0000    0.94752   0.35788   0.83279   Biso      1.000     C          0.617787  
         C29       1.0000    0.43518   0.56262   0.04980   Biso      1.000     C          -0.191402           
         C30       1.0000    0.44112   0.71228   0.56933   Biso      1.000     C          0.64295   
         C31       1.0000    0.71228   0.44112   0.06933   Biso      1.000     C          0.642951  
         C32       1.0000    0.58699   0.44541   0.03957   Biso      1.000     C          -0.127348           
         C33       1.0000    0.56482   0.43738   0.95020   Biso      1.000     C          -0.191402           
         C34       1.0000    0.56770   0.92890   0.04000   Biso      1.000     C          -0.19706600000000002          
         C35       1.0000    0.45380   0.08180   0.05010   Biso      1.000     C          -0.19028299999999998          
         C36       1.0000    0.57080   0.05360   0.07740   Biso      1.000     C          -0.11529600000000001          
         C37       1.0000    0.58893   0.06607   0.16670   Biso      1.000     C          0.634968  
         C38       1.0000    0.88950   0.92170   0.52160   Biso      1.000     C          -0.194553           
         C39       1.0000    0.98780   0.07040   0.43460   Biso      1.000     C          -0.202342           
         C40       1.0000    0.89120   0.03920   0.48840   Biso      1.000     C          -0.11691900000000001          
         C41       1.0000    0.76750   0.03630   0.45090   Biso      1.000     C          0.626869  
         C42       1.0000    0.26300   0.73080   0.29370   Biso      1.000     C          -0.19278499999999998          
         C43       1.0000    0.13302   0.87198   0.29500   Biso      1.000     C          -0.197678           
         C44       1.0000    0.24525   0.84695   0.33393   Biso      1.000     C          -0.112846           
         C45       1.0000    0.35788   0.94752   0.33279   Biso      1.000     C          0.617788  
         C46       1.0000    0.44154   0.43806   0.42220   Biso      1.000     C          -0.18518099999999998          
         C47       1.0000    0.56262   0.43518   0.54980   Biso      1.000     C          -0.191402           
         C48       1.0000    0.55459   0.41301   0.46043   Biso      1.000     C          -0.127348           
         C49       1.0000    0.55888   0.28772   0.43067   Biso      1.000     C          0.6429520000000001  
         C50       1.0000    0.07110   0.43230   0.46000   Biso      1.000     C          -0.19706700000000002          
         C51       1.0000    0.91820   0.54620   0.44990   Biso      1.000     C          -0.19028299999999998          
         C52       1.0000    0.94640   0.42920   0.42260   Biso      1.000     C          -0.11529600000000001          
         C53       1.0000    0.93393   0.41107   0.33330   Biso      1.000     C          0.634968  
         C54       1.0000    0.07830   0.11050   0.97840   Biso      1.000     C          -0.194553           
         C55       1.0000    0.92960   0.01220   0.06540   Biso      1.000     C          -0.202342           
         C56       1.0000    0.96080   0.10880   0.01160   Biso      1.000     C          -0.11691900000000001          
         C57       1.0000    0.96370   0.23250   0.04910   Biso      1.000     C          0.626869  
         C58       1.0000    0.26920   0.73700   0.20630   Biso      1.000     C          -0.19279200000000002          
         C59       1.0000    0.12802   0.86698   0.20500   Biso      1.000     C          -0.197678           
         C60       1.0000    0.15305   0.75475   0.16607   Biso      1.000     C          -0.112845           
         C61       1.0000    0.05248   0.64212   0.16721   Biso      1.000     C          0.617787  
         C62       1.0000    0.56194   0.55846   0.07780   Biso      1.000     C          -0.18518099999999998          
         C63       1.0000    0.41301   0.55459   0.96043   Biso      1.000     C          -0.127348           
         C64       1.0000    0.28772   0.55888   0.93067   Biso      1.000     C          0.642941  
         Cd1       1.0000    0.08557   0.58758   0.82456   Biso      1.000     Cd          0.961693  
         Cd2       1.0000    0.41242   0.91443   0.67544   Biso      1.000     Cd          0.961685  
         Cd3       1.0000    0.91443   0.41242   0.17544   Biso      1.000     Cd          0.961686  
         Cd4       1.0000    0.58758   0.08557   0.32456   Biso      1.000     Cd          0.961686  
         Cd5       1.0000    0.36320   0.63681   0.75000   Biso      1.000     Cd          1.105877  
         Cd6       1.0000    0.63681   0.36319   0.25000   Biso      1.000     Cd          1.105891  
         Cd7       1.0000    0.00000   0.50000   0.00000   Biso      1.000     Cd          1.0892950000000001  
         Cd8       1.0000    0.50000   0.00000   0.50000   Biso      1.000     Cd          1.0892959999999998  
         H1        1.0000    0.83610   0.54230   0.42740   Biso      1.000     H          0.088323  
         H2        1.0000    0.91260   0.64460   0.55620   Biso      1.000     H          0.107607  
         H3        1.0000    0.97450   0.61390   0.43040   Biso      1.000     H          0.109649  
         H4        1.0000    0.36180   0.57680   0.42640   Biso      1.000     H          0.112272  
         H5        1.0000    0.50450   0.62350   0.43220   Biso      1.000     H          0.10951099999999998           
         H6        1.0000    0.56000   0.57160   0.63580   Biso      1.000     H          0.08984   
         H7        1.0000    0.63000   0.62080   0.56450   Biso      1.000     H          0.115204  
         H8        1.0000    0.76550   0.16350   0.60990   Biso      1.000     H          0.090474  
         H9        1.0000    0.80430   0.33810   0.69880   Biso      1.000     H          0.107     
         H10       1.0000    0.93850   0.18750   0.69220   Biso      1.000     H          0.097725  
         H11       1.0000    0.66220   0.28160   0.68160   Biso      1.000     H          0.104369  
         H12       1.0000    0.86830   0.50330   0.55910   Biso      1.000     H          0.104251  
         H13       1.0000    0.08670   0.89650   0.46580   Biso      1.000     H          0.096301  
         H14       1.0000    0.01040   0.85200   0.58450   Biso      1.000     H          0.101748  
         H15       1.0000    0.03050   0.99150   0.61160   Biso      1.000     H          0.10771300000000002           
         H16       1.0000    0.13200   0.14480   0.52200   Biso      1.000     H          0.097337  
         H17       1.0000    0.86970   0.04790   0.68280   Biso      1.000     H          0.104307  
         H18       1.0000    0.16390   0.45770   0.57260   Biso      1.000     H          0.088324  
         H19       1.0000    0.85520   0.86800   0.97800   Biso      1.000     H          0.097336  
         H20       1.0000    0.11350   0.63850   0.55940   Biso      1.000     H          0.100027  
         H21       1.0000    0.47130   0.62510   0.94400   Biso      1.000     H          0.085686  
         H22       1.0000    0.42320   0.63820   0.07360   Biso      1.000     H          0.11227100000000001           
         H23       1.0000    0.37650   0.49550   0.06780   Biso      1.000     H          0.10951099999999998           
         H24       1.0000    0.42840   0.44000   0.86420   Biso      1.000     H          0.08984199999999999           
         H25       1.0000    0.37920   0.37000   0.93550   Biso      1.000     H          0.115204  
         H26       1.0000    0.83650   0.23450   0.89010   Biso      1.000     H          0.090474  
         H27       1.0000    0.95210   0.13030   0.81720   Biso      1.000     H          0.104308  
         H28       1.0000    0.81250   0.06150   0.80780   Biso      1.000     H          0.097724  
         H29       1.0000    0.71840   0.33780   0.81840   Biso      1.000     H          0.10437300000000001           
         H30       1.0000    0.66190   0.19570   0.80120   Biso      1.000     H          0.106998  
         H31       1.0000    0.10350   0.91330   0.03420   Biso      1.000     H          0.096301  
         H32       1.0000    0.14800   0.98960   0.91550   Biso      1.000     H          0.101747  
         H33       1.0000    0.00850   0.96950   0.88840   Biso      1.000     H          0.10771300000000002           
         H34       1.0000    0.17200   0.09540   0.44190   Biso      1.000     H          0.106464  
         H35       1.0000    0.90460   0.82800   0.05810   Biso      1.000     H          0.106464  
         H36       1.0000    0.02550   0.38610   0.56960   Biso      1.000     H          0.109649  
         H37       1.0000    0.36150   0.88650   0.94060   Biso      1.000     H          0.10002899999999999           
         H38       1.0000    0.37490   0.52870   0.55600   Biso      1.000     H          0.085689  
         H39       1.0000    0.54230   0.83610   0.92740   Biso      1.000     H          0.088322  
         H40       1.0000    0.63850   0.11350   0.05940   Biso      1.000     H          0.10002799999999999           
         H41       1.0000    0.82800   0.90460   0.55810   Biso      1.000     H          0.106464  
         H42       1.0000    0.86800   0.85520   0.47800   Biso      1.000     H          0.097337  
         H43       1.0000    0.96950   0.00850   0.38840   Biso      1.000     H          0.10771300000000002           
         H44       1.0000    0.98960   0.14800   0.41550   Biso      1.000     H          0.101747  
         H45       1.0000    0.91330   0.10350   0.53420   Biso      1.000     H          0.096301  
         H46       1.0000    0.19570   0.66190   0.30120   Biso      1.000     H          0.106999  
         H47       1.0000    0.33780   0.71840   0.31840   Biso      1.000     H          0.10437   
         H48       1.0000    0.38610   0.02550   0.06960   Biso      1.000     H          0.109649  
         H49       1.0000    0.06150   0.81250   0.30780   Biso      1.000     H          0.097724  
         H50       1.0000    0.23450   0.83650   0.39010   Biso      1.000     H          0.090474  
         H51       1.0000    0.37000   0.37920   0.43550   Biso      1.000     H          0.115203  
         H52       1.0000    0.61390   0.97450   0.93040   Biso      1.000     H          0.109649  
         H53       1.0000    0.49550   0.37650   0.56780   Biso      1.000     H          0.10951199999999998           
         H54       1.0000    0.63820   0.42320   0.57360   Biso      1.000     H          0.112272  
         H55       1.0000    0.62510   0.47130   0.44400   Biso      1.000     H          0.085688  
         H56       1.0000    0.08740   0.35540   0.44380   Biso      1.000     H          0.107607  
         H57       1.0000    0.13170   0.49670   0.44090   Biso      1.000     H          0.104251  
         H58       1.0000    0.13030   0.95210   0.31720   Biso      1.000     H          0.104307  
         H59       1.0000    0.45770   0.16390   0.07260   Biso      1.000     H          0.088324  
         H60       1.0000    0.44000   0.42840   0.36420   Biso      1.000     H          0.08984400000000001           
         H61       1.0000    0.64460   0.91260   0.05620   Biso      1.000     H          0.107607  
         H62       1.0000    0.50330   0.86830   0.05910   Biso      1.000     H          0.104252  
         H63       1.0000    0.49670   0.13170   0.94090   Biso      1.000     H          0.104252  
         H64       1.0000    0.35540   0.08740   0.94380   Biso      1.000     H          0.107607  
         H65       1.0000    0.57680   0.36180   0.92640   Biso      1.000     H          0.11227100000000001           
         H66       1.0000    0.62350   0.50450   0.93220   Biso      1.000     H          0.10951099999999998           
         H67       1.0000    0.57160   0.56000   0.13580   Biso      1.000     H          0.08984299999999999           
         H68       1.0000    0.62080   0.63000   0.06450   Biso      1.000     H          0.115203  
         H69       1.0000    0.16350   0.76550   0.10990   Biso      1.000     H          0.090474  
         H70       1.0000    0.04790   0.86970   0.18280   Biso      1.000     H          0.104308  
         H71       1.0000    0.52870   0.37490   0.05600   Biso      1.000     H          0.085688  
         H72       1.0000    0.28160   0.66220   0.18160   Biso      1.000     H          0.10437300000000001           
         H73       1.0000    0.33810   0.80430   0.19880   Biso      1.000     H          0.106999  
         H74       1.0000    0.89650   0.08670   0.96580   Biso      1.000     H          0.096301  
         H75       1.0000    0.85200   0.01040   0.08450   Biso      1.000     H          0.101747  
         H76       1.0000    0.99150   0.03050   0.11160   Biso      1.000     H          0.10771300000000002           
         H77       1.0000    0.14480   0.13200   0.02200   Biso      1.000     H          0.097337  
         H78       1.0000    0.09540   0.17200   0.94190   Biso      1.000     H          0.106464  
         H79       1.0000    0.18750   0.93850   0.19220   Biso      1.000     H          0.097724  
         H80       1.0000    0.88650   0.36150   0.44060   Biso      1.000     H          0.10002799999999999           
         O1        1.0000    0.79359   0.45701   0.02714   Biso      1.000     O          -0.514419           
         O2        1.0000    0.06322   0.54532   0.12903   Biso      1.000     O          -0.627221           
         O3        1.0000    0.96667   0.63893   0.20480   Biso      1.000     O          -0.536668           
         O4        1.0000    0.92742   0.24398   0.11550   Biso      1.000     O          -0.559601           
         O5        1.0000    0.00268   0.31572   0.00911   Biso      1.000     O          -0.59155  
         O6        1.0000    0.83020   0.38240   0.29476   Biso      1.000     O          -0.633245           
         O7        1.0000    0.45468   0.93678   0.37097   Biso      1.000     O          -0.627223           
         O8        1.0000    0.58099   0.27201   0.35870   Biso      1.000     O          -0.615232           
         O9        1.0000    0.54299   0.20641   0.47286   Biso      1.000     O          -0.514419           
         O10       1.0000    0.36107   0.03333   0.29520   Biso      1.000     O          -0.536668           
         O11       1.0000    0.75602   0.07258   0.38450   Biso      1.000     O          -0.5596   
         O12       1.0000    0.72799   0.41901   0.14130   Biso      1.000     O          -0.615232           
         O13       1.0000    0.68428   0.99732   0.49089   Biso      1.000     O          -0.591551           
         O14       1.0000    0.02480   0.42880   0.29850   Biso      1.000     O          -0.516031           
         O15       1.0000    0.42880   0.02480   0.79850   Biso      1.000     O          -0.51603  
         O16       1.0000    0.99732   0.68428   0.99089   Biso      1.000     O          -0.591551           
         O17       1.0000    0.31572   0.00268   0.50911   Biso      1.000     O          -0.59155  
         O18       1.0000    0.24398   0.92742   0.61550   Biso      1.000     O          -0.559599           
         O19       1.0000    0.63893   0.96667   0.70480   Biso      1.000     O          -0.536669           
         O20       1.0000    0.54532   0.06322   0.62903   Biso      1.000     O          -0.627223           
         O21       1.0000    0.45701   0.79359   0.52714   Biso      1.000     O          -0.514415           
         O22       1.0000    0.41901   0.72799   0.64130   Biso      1.000     O          -0.615218           
         O23       1.0000    0.97520   0.57120   0.70150   Biso      1.000     O          -0.5160359999999999           
         O24       1.0000    0.16980   0.61760   0.70524   Biso      1.000     O          -0.63327  
         O25       1.0000    0.07258   0.75602   0.88450   Biso      1.000     O          -0.5596   
         O26       1.0000    0.03333   0.36107   0.79520   Biso      1.000     O          -0.536667           
         O27       1.0000    0.93678   0.45468   0.87097   Biso      1.000     O          -0.6272220000000001           
         O28       1.0000    0.20641   0.54299   0.97286   Biso      1.000     O          -0.514417           
         O29       1.0000    0.27201   0.58099   0.85870   Biso      1.000     O          -0.615207           
         O30       1.0000    0.61760   0.16980   0.20524   Biso      1.000     O          -0.6332439999999999           
         O31       1.0000    0.38240   0.83020   0.79476   Biso      1.000     O          -0.6332399999999999           
         O32       1.0000    0.57120   0.97520   0.20150   Biso      1.000     O          -0.516031 