
##########################################################################
#               Crystallographic Information Format file
#               Produced by PyCifRW module
#
#  This is a CIF file.  CIF has been adopted by the International
#  Union of Crystallography as the standard for data archiving and
#  transmission.
#
#  For information on this file format, follow the CIF links at
#  http://www.iucr.org
##########################################################################

data_image0

_cell_length_a                          10.0662
_cell_length_b                          11.4492
_cell_length_c                          12.7746
_cell_angle_alpha                       108.73
_cell_angle_beta                        96.948
_cell_angle_gamma                       96.802
_symmetry_space_group_name_H-M          'P 1'
_symmetry_int_tables_number             1
loop_
  _symmetry_equiv_pos_as_xyz
         'x, y, z' 
loop_
  _atom_site_label
  _atom_site_occupancy
  _atom_site_fract_x
  _atom_site_fract_y
  _atom_site_fract_z
  _atom_site_thermal_displace_type
  _atom_site_B_iso_or_equiv
  _atom_site_type_symbol
  _atom_site_charge
         C1        1.0000    0.94740   0.69370   0.65200   Biso      1.000     C          0.616079  
         C2        1.0000    0.06840   0.38460   0.62510   Biso      1.000     C          -0.073279           
         C3        1.0000    0.95170   0.31400   0.63650   Biso      1.000     C          -0.005325           
         C4        1.0000    0.93500   0.17800   0.62410   Biso      1.000     C          0.665441  
         C5        1.0000    0.98790   0.61700   0.06900   Biso      1.000     C          -0.16093  
         C6        1.0000    0.78930   0.28520   0.95440   Biso      1.000     C          0.559413  
         C7        1.0000    0.89860   0.39780   0.98130   Biso      1.000     C          6.500000000000001e-05         
         C8        1.0000    0.88600   0.51690   0.05200   Biso      1.000     C          -0.03524  
         C9        1.0000    0.77080   0.53720   0.11600   Biso      1.000     C          0.623861  
         C10       1.0000    0.16050   0.62910   0.33580   Biso      1.000     C          -0.11553800000000002          
         C11       1.0000    0.28800   0.45570   0.29640   Biso      1.000     C          0.623545  
         C12       1.0000    0.16180   0.50570   0.32780   Biso      1.000     C          0.028936  
         C13       1.0000    0.05260   0.30630   0.34800   Biso      1.000     C          0.616078  
         C14       1.0000    0.04850   0.43610   0.34530   Biso      1.000     C          -0.016486           
         C15       1.0000    0.93410   0.49100   0.36650   Biso      1.000     C          -0.120103           
         C16       1.0000    0.80220   0.66960   0.39350   Biso      1.000     C          0.685148  
         C17       1.0000    0.93160   0.61540   0.37490   Biso      1.000     C          -0.07328  
         C18       1.0000    0.04830   0.68600   0.36350   Biso      1.000     C          -0.005325           
         C19       1.0000    0.06500   0.82200   0.37590   Biso      1.000     C          0.665441  
         C20       1.0000    0.95150   0.56390   0.65470   Biso      1.000     C          -0.016484           
         C21       1.0000    0.83820   0.49430   0.67220   Biso      1.000     C          0.028933999999999998          
         C22       1.0000    0.71200   0.54430   0.70360   Biso      1.000     C          0.623545  
         C23       1.0000    0.83950   0.37090   0.66420   Biso      1.000     C          -0.11553499999999998          
         C24       1.0000    0.22920   0.46280   0.88400   Biso      1.000     C          0.623859  
         C25       1.0000    0.11400   0.48310   0.94800   Biso      1.000     C          -0.035242           
         C26       1.0000    0.10140   0.60220   0.01870   Biso      1.000     C          6.4e-05   
         C27       1.0000    0.21070   0.71480   0.04560   Biso      1.000     C          0.559413  
         C28       1.0000    0.01210   0.38300   0.93100   Biso      1.000     C          -0.160927           
         C29       1.0000    0.19780   0.33040   0.60650   Biso      1.000     C          0.6851470000000001  
         C30       1.0000    0.06590   0.50900   0.63350   Biso      1.000     C          -0.120102           
         Gd1       1.0000    0.93186   0.92366   0.61605   Biso      1.000     Gd          2.098439  
         Gd2       1.0000    0.45164   0.59816   0.75822   Biso      1.000     Gd          1.833403  
         Gd3       1.0000    0.06814   0.07634   0.38395   Biso      1.000     Gd          2.098437  
         Gd4       1.0000    0.54836   0.40184   0.24178   Biso      1.000     Gd          1.8334720000000002  
         H1        1.0000    0.76200   0.32400   0.68100   Biso      1.000     H          0.143507  
         H2        1.0000    0.13900   0.55400   0.62500   Biso      1.000     H          0.106352  
         H3        1.0000    0.98000   0.69300   0.11000   Biso      1.000     H          0.124608  
         H4        1.0000    0.23800   0.67600   0.31900   Biso      1.000     H          0.143507  
         H5        1.0000    0.86100   0.44600   0.37500   Biso      1.000     H          0.10635599999999999           
         H6        1.0000    0.02000   0.30700   0.89000   Biso      1.000     H          0.124608  
         O1        1.0000    0.17730   0.80630   0.02000   Biso      1.000     O          -0.578696           
         O2        1.0000    0.18550   0.21210   0.56470   Biso      1.000     O          -0.6822199999999999           
         O3        1.0000    0.30880   0.40310   0.63250   Biso      1.000     O          -0.601966           
         O4        1.0000    0.05520   0.76290   0.65250   Biso      1.000     O          -0.661776           
         O5        1.0000    0.26510   0.35670   0.85550   Biso      1.000     O          -0.564851           
         O6        1.0000    0.71140   0.61190   0.80250   Biso      1.000     O          -0.586386           
         O7        1.0000    0.60440   0.50720   0.63040   Biso      1.000     O          -0.6440859999999999           
         O8        1.0000    0.28130   0.55400   0.85930   Biso      1.000     O          -0.702986           
         O9        1.0000    0.92200   0.14630   0.70710   Biso      1.000     O          -0.565099           
         O10       1.0000    0.83480   0.73040   0.64520   Biso      1.000     O          -0.6452640000000001           
         O11       1.0000    0.92450   0.09490   0.52660   Biso      1.000     O          -0.772848           
         O12       1.0000    0.39560   0.49280   0.36960   Biso      1.000     O          -0.6441020000000001           
         O13       1.0000    0.82270   0.19370   0.98000   Biso      1.000     O          -0.578699           
         O14       1.0000    0.73490   0.64330   0.14450   Biso      1.000     O          -0.56485  
         O15       1.0000    0.71870   0.44600   0.14070   Biso      1.000     O          -0.7030069999999999           
         O16       1.0000    0.28860   0.38810   0.19750   Biso      1.000     O          -0.5864   
         O17       1.0000    0.16520   0.26960   0.35480   Biso      1.000     O          -0.645261           
         O18       1.0000    0.94480   0.23710   0.34750   Biso      1.000     O          -0.661767           
         O19       1.0000    0.69120   0.59690   0.36750   Biso      1.000     O          -0.601986           
         O20       1.0000    0.81450   0.78790   0.43530   Biso      1.000     O          -0.6822199999999999           
         O21       1.0000    0.07800   0.85370   0.29290   Biso      1.000     O          -0.565099           
         O22       1.0000    0.07550   0.90510   0.47340   Biso      1.000     O          -0.772848           
         O23       1.0000    0.67370   0.28830   0.90600   Biso      1.000     O          -0.575724           
         O24       1.0000    0.32630   0.71170   0.09400   Biso      1.000     O          -0.575721 