
##########################################################################
#               Crystallographic Information Format file
#               Produced by PyCifRW module
#
#  This is a CIF file.  CIF has been adopted by the International
#  Union of Crystallography as the standard for data archiving and
#  transmission.
#
#  For information on this file format, follow the CIF links at
#  http://www.iucr.org
##########################################################################

data_image0

_cell_length_a                          7.1849
_cell_length_b                          10.7329
_cell_length_c                          17.1753
_cell_angle_alpha                       97.16
_cell_angle_beta                        90
_cell_angle_gamma                       90
_symmetry_space_group_name_H-M          'P 1'
_symmetry_int_tables_number             1
loop_
  _symmetry_equiv_pos_as_xyz
         'x, y, z' 
loop_
  _atom_site_label
  _atom_site_occupancy
  _atom_site_fract_x
  _atom_site_fract_y
  _atom_site_fract_z
  _atom_site_thermal_displace_type
  _atom_site_B_iso_or_equiv
  _atom_site_type_symbol
  _atom_site_charge
         C1        1.0000    0.65880   0.94630   0.46305   Biso      1.000     C          -0.034526           
         C2        1.0000    0.42840   0.95270   0.56655   Biso      1.000     C          -0.029924           
         C3        1.0000    0.34120   0.05370   0.53695   Biso      1.000     C          -0.034526999999999995         
         C4        1.0000    0.18140   0.12200   0.57921   Biso      1.000     C          0.6104649999999999  
         C5        1.0000    0.58820   0.90100   0.52949   Biso      1.000     C          -0.127592           
         C6        1.0000    0.75170   0.90560   0.87443   Biso      1.000     C          0.6300640000000001  
         C7        1.0000    0.61770   0.95210   0.93813   Biso      1.000     C          -0.035196           
         C8        1.0000    0.42580   0.95770   0.92663   Biso      1.000     C          -0.009120999999999999         
         C9        1.0000    0.35250   0.89150   0.63405   Biso      1.000     C          0.670524  
         C10       1.0000    0.32690   0.91600   0.85129   Biso      1.000     C          0.634456  
         C11       1.0000    0.85250   0.60850   0.86595   Biso      1.000     C          0.670524  
         C12       1.0000    0.92840   0.54730   0.93345   Biso      1.000     C          -0.029924           
         C13       1.0000    0.84120   0.44630   0.96305   Biso      1.000     C          -0.034526999999999995         
         C14       1.0000    0.68140   0.37800   0.92079   Biso      1.000     C          0.6104649999999999  
         C15       1.0000    0.08820   0.59900   0.97051   Biso      1.000     C          -0.127593           
         C16       1.0000    0.74830   0.40560   0.37443   Biso      1.000     C          0.6300640000000001  
         C17       1.0000    0.88230   0.45210   0.43813   Biso      1.000     C          -0.035196           
         C18       1.0000    0.68990   0.99440   0.01182   Biso      1.000     C          -0.120604           
         C19       1.0000    0.18990   0.50560   0.48818   Biso      1.000     C          -0.12060499999999999          
         C20       1.0000    0.82690   0.58400   0.64871   Biso      1.000     C          0.634456  
         C21       1.0000    0.92580   0.54230   0.57337   Biso      1.000     C          -0.009120999999999999         
         C22       1.0000    0.91180   0.40100   0.02949   Biso      1.000     C          -0.127592           
         C23       1.0000    0.31860   0.62200   0.07921   Biso      1.000     C          0.6104649999999999  
         C24       1.0000    0.15880   0.55370   0.03695   Biso      1.000     C          -0.034525           
         C25       1.0000    0.07160   0.45270   0.06655   Biso      1.000     C          -0.029925           
         C26       1.0000    0.14750   0.39150   0.13405   Biso      1.000     C          0.670524  
         C27       1.0000    0.31010   0.00560   0.98818   Biso      1.000     C          -0.120604           
         C28       1.0000    0.67310   0.08400   0.14871   Biso      1.000     C          0.634456  
         C29       1.0000    0.57420   0.04230   0.07337   Biso      1.000     C          -0.009120999999999999         
         C30       1.0000    0.38230   0.04790   0.06187   Biso      1.000     C          -0.035195           
         C31       1.0000    0.24830   0.09440   0.12557   Biso      1.000     C          0.630065  
         C32       1.0000    0.41180   0.09900   0.47051   Biso      1.000     C          -0.127592           
         C33       1.0000    0.81860   0.87800   0.42079   Biso      1.000     C          0.6104649999999999  
         C34       1.0000    0.57160   0.04730   0.43345   Biso      1.000     C          -0.029925           
         C35       1.0000    0.64750   0.10850   0.36595   Biso      1.000     C          0.670524  
         C36       1.0000    0.81010   0.49440   0.51182   Biso      1.000     C          -0.120604           
         C37       1.0000    0.25170   0.59440   0.62557   Biso      1.000     C          0.6300640000000001  
         C38       1.0000    0.11770   0.54790   0.56187   Biso      1.000     C          -0.035194           
         C39       1.0000    0.07420   0.45770   0.42663   Biso      1.000     C          -0.00912  
         C40       1.0000    0.17310   0.41600   0.35129   Biso      1.000     C          0.634456  
         Gd1       1.0000    0.02004   0.82501   0.75316   Biso      1.000     Gd          2.0855799999999998  
         Gd2       1.0000    0.52004   0.67499   0.74684   Biso      1.000     Gd          2.0855799999999998  
         Gd3       1.0000    0.97996   0.17499   0.24684   Biso      1.000     Gd          2.0855799999999998  
         Gd4       1.0000    0.47996   0.32501   0.25316   Biso      1.000     Gd          2.0855799999999998  
         H1        1.0000    0.84900   0.33300   0.05180   Biso      1.000     H          0.134121  
         H2        1.0000    0.31700   0.50700   0.48060   Biso      1.000     H          0.139293  
         H3        1.0000    0.96600   0.19000   0.56000   Biso      1.000     H          0.422878  
         H4        1.0000    0.65100   0.83300   0.55180   Biso      1.000     H          0.134121  
         H5        1.0000    0.81700   0.99300   0.01940   Biso      1.000     H          0.139293  
         H6        1.0000    0.53400   0.69000   0.06000   Biso      1.000     H          0.422878  
         H7        1.0000    0.15100   0.66700   0.94820   Biso      1.000     H          0.134121  
         H8        1.0000    0.68300   0.49300   0.51940   Biso      1.000     H          0.139294  
         H9        1.0000    0.03400   0.81000   0.44000   Biso      1.000     H          0.422878  
         H10       1.0000    0.34900   0.16700   0.44820   Biso      1.000     H          0.134121  
         H11       1.0000    0.18300   0.00700   0.98060   Biso      1.000     H          0.139294  
         H12       1.0000    0.46600   0.31000   0.94000   Biso      1.000     H          0.422878  
         O1        1.0000    0.57900   0.41710   0.38629   Biso      1.000     O          -0.575314           
         O2        1.0000    0.19190   0.29724   0.32957   Biso      1.000     O          -0.765275           
         O3        1.0000    0.25230   0.49396   0.31535   Biso      1.000     O          -0.550404           
         O4        1.0000    0.82110   0.11243   0.35712   Biso      1.000     O          -0.676502           
         O5        1.0000    0.53120   0.15493   0.32378   Biso      1.000     O          -0.661971           
         O6        1.0000    0.81760   0.84650   0.35008   Biso      1.000     O          -0.494687           
         O7        1.0000    0.31060   0.14428   0.19223   Biso      1.000     O          -0.739351           
         O8        1.0000    0.07900   0.08290   0.11371   Biso      1.000     O          -0.575314           
         O9        1.0000    0.69190   0.20276   0.17043   Biso      1.000     O          -0.765275           
         O10       1.0000    0.75230   0.00604   0.18465   Biso      1.000     O          -0.550404           
         O11       1.0000    0.32110   0.38757   0.14288   Biso      1.000     O          -0.676502           
         O12       1.0000    0.81060   0.35572   0.30777   Biso      1.000     O          -0.739351           
         O13       1.0000    0.03120   0.34507   0.17622   Biso      1.000     O          -0.661971           
         O14       1.0000    0.95260   0.85160   0.46699   Biso      1.000     O          -0.5069130000000001           
         O15       1.0000    0.54740   0.35160   0.96699   Biso      1.000     O          -0.5069130000000001           
         O16       1.0000    0.68940   0.85572   0.80777   Biso      1.000     O          -0.739351           
         O17       1.0000    0.96880   0.65493   0.82378   Biso      1.000     O          -0.661971           
         O18       1.0000    0.67890   0.61243   0.85712   Biso      1.000     O          -0.676502           
         O19       1.0000    0.24770   0.99396   0.81535   Biso      1.000     O          -0.550404           
         O20       1.0000    0.30810   0.79724   0.82957   Biso      1.000     O          -0.765275           
         O21       1.0000    0.92100   0.91710   0.88629   Biso      1.000     O          -0.575314           
         O22       1.0000    0.04740   0.14840   0.53301   Biso      1.000     O          -0.5069130000000001           
         O23       1.0000    0.18240   0.15350   0.64992   Biso      1.000     O          -0.494687           
         O24       1.0000    0.46880   0.84507   0.67622   Biso      1.000     O          -0.661971           
         O25       1.0000    0.17890   0.88757   0.64288   Biso      1.000     O          -0.676502           
         O26       1.0000    0.74770   0.50604   0.68465   Biso      1.000     O          -0.550404           
         O27       1.0000    0.80810   0.70276   0.67043   Biso      1.000     O          -0.765275           
         O28       1.0000    0.42100   0.58290   0.61371   Biso      1.000     O          -0.575314           
         O29       1.0000    0.18940   0.64428   0.69223   Biso      1.000     O          -0.739351           
         O30       1.0000    0.31760   0.65350   0.14992   Biso      1.000     O          -0.494688           
         O31       1.0000    0.68240   0.34650   0.85008   Biso      1.000     O          -0.494688           
         O32       1.0000    0.45260   0.64840   0.03301   Biso      1.000     O          -0.5069140000000001 