
##########################################################################
#               Crystallographic Information Format file
#               Produced by PyCifRW module
#
#  This is a CIF file.  CIF has been adopted by the International
#  Union of Crystallography as the standard for data archiving and
#  transmission.
#
#  For information on this file format, follow the CIF links at
#  http://www.iucr.org
##########################################################################

data_image0

_cell_length_a                          14.1613
_cell_length_b                          15.6764
_cell_length_c                          16.1345
_cell_angle_alpha                       90
_cell_angle_beta                        90
_cell_angle_gamma                       90
_symmetry_space_group_name_H-M          'P 1'
_symmetry_int_tables_number             1
loop_
  _symmetry_equiv_pos_as_xyz
         'x, y, z' 
loop_
  _atom_site_label
  _atom_site_occupancy
  _atom_site_fract_x
  _atom_site_fract_y
  _atom_site_fract_z
  _atom_site_thermal_displace_type
  _atom_site_B_iso_or_equiv
  _atom_site_type_symbol
  _atom_site_charge
         C1        1.0000    0.74250   0.00210   0.97310   Biso      1.000     C          -0.033803           
         C2        1.0000    0.38590   0.44810   0.48200   Biso      1.000     C          0.188054  
         C3        1.0000    0.24910   0.48820   0.44230   Biso      1.000     C          -0.022125           
         C4        1.0000    0.25750   0.50210   0.52690   Biso      1.000     C          -0.033803           
         C5        1.0000    0.54640   0.18150   0.81810   Biso      1.000     C          0.616142  
         C6        1.0000    0.34550   0.27330   0.72250   Biso      1.000     C          0.202215  
         C7        1.0000    0.47870   0.32350   0.75900   Biso      1.000     C          0.029846  
         C8        1.0000    0.47520   0.23780   0.78050   Biso      1.000     C          -0.037441           
         C9        1.0000    0.32690   0.00380   0.37870   Biso      1.000     C          0.611599  
         C10       1.0000    0.30710   0.03740   0.59230   Biso      1.000     C          0.610265  
         C11       1.0000    0.11410   0.94810   0.48200   Biso      1.000     C          0.188054  
         C12       1.0000    0.25090   0.98820   0.44230   Biso      1.000     C          -0.022125           
         C13       1.0000    0.24250   0.00210   0.52690   Biso      1.000     C          -0.033803           
         C14       1.0000    0.94440   0.88710   0.76640   Biso      1.000     C          0.567482  
         C15       1.0000    0.95360   0.68150   0.81810   Biso      1.000     C          0.616142  
         C16       1.0000    0.15450   0.77330   0.72250   Biso      1.000     C          0.202215  
         C17       1.0000    0.02130   0.82350   0.75900   Biso      1.000     C          0.029846  
         C18       1.0000    0.02480   0.73780   0.78050   Biso      1.000     C          -0.037441           
         C19       1.0000    0.17310   0.99620   0.87870   Biso      1.000     C          0.611599  
         C20       1.0000    0.19290   0.96260   0.09230   Biso      1.000     C          0.610266  
         C21       1.0000    0.38590   0.05190   0.98200   Biso      1.000     C          0.188054  
         C22       1.0000    0.24910   0.01180   0.94230   Biso      1.000     C          -0.022125           
         C23       1.0000    0.25750   0.99790   0.02690   Biso      1.000     C          -0.033803           
         C24       1.0000    0.55560   0.11290   0.26640   Biso      1.000     C          0.567482  
         C25       1.0000    0.54640   0.31850   0.31810   Biso      1.000     C          0.616142  
         C26       1.0000    0.34550   0.22670   0.22250   Biso      1.000     C          0.202215  
         C27       1.0000    0.47870   0.17650   0.25900   Biso      1.000     C          0.029846  
         C28       1.0000    0.47520   0.26220   0.28050   Biso      1.000     C          -0.03744  
         C29       1.0000    0.19290   0.53740   0.59230   Biso      1.000     C          0.610265  
         C30       1.0000    0.67310   0.50380   0.12130   Biso      1.000     C          0.611599  
         C31       1.0000    0.17310   0.50380   0.37870   Biso      1.000     C          0.611599  
         C32       1.0000    0.02130   0.67650   0.25900   Biso      1.000     C          0.029846  
         C33       1.0000    0.67310   0.99620   0.62130   Biso      1.000     C          0.611599  
         C34       1.0000    0.69290   0.96260   0.40770   Biso      1.000     C          0.610265  
         C35       1.0000    0.88590   0.05190   0.51800   Biso      1.000     C          0.188054  
         C36       1.0000    0.74910   0.01180   0.55770   Biso      1.000     C          -0.022125           
         C37       1.0000    0.75750   0.99790   0.47310   Biso      1.000     C          -0.033803           
         C38       1.0000    0.05560   0.11290   0.23360   Biso      1.000     C          0.567482  
         C39       1.0000    0.04640   0.31850   0.18190   Biso      1.000     C          0.616142  
         C40       1.0000    0.84550   0.22670   0.27750   Biso      1.000     C          0.202215  
         C41       1.0000    0.97870   0.17650   0.24100   Biso      1.000     C          0.029846  
         C42       1.0000    0.97520   0.26220   0.21950   Biso      1.000     C          -0.037441           
         C43       1.0000    0.82690   0.00380   0.12130   Biso      1.000     C          0.611599  
         C44       1.0000    0.80710   0.03740   0.90770   Biso      1.000     C          0.610265  
         C45       1.0000    0.61410   0.94810   0.01800   Biso      1.000     C          0.188054  
         C46       1.0000    0.75090   0.98820   0.05770   Biso      1.000     C          -0.022125           
         C47       1.0000    0.44440   0.88710   0.73360   Biso      1.000     C          0.567482  
         C48       1.0000    0.45360   0.68150   0.68190   Biso      1.000     C          0.616142  
         C49       1.0000    0.65450   0.77330   0.77750   Biso      1.000     C          0.202215  
         C50       1.0000    0.52130   0.82350   0.74100   Biso      1.000     C          0.029846  
         C51       1.0000    0.52480   0.73780   0.71950   Biso      1.000     C          -0.03744  
         C52       1.0000    0.32690   0.49620   0.87870   Biso      1.000     C          0.611599  
         C53       1.0000    0.30710   0.46260   0.09230   Biso      1.000     C          0.610266  
         C54       1.0000    0.11410   0.55190   0.98200   Biso      1.000     C          0.188054  
         C55       1.0000    0.25090   0.51180   0.94230   Biso      1.000     C          -0.022125           
         C56       1.0000    0.24250   0.49790   0.02690   Biso      1.000     C          -0.033803           
         C57       1.0000    0.94440   0.61290   0.26640   Biso      1.000     C          0.567482  
         C58       1.0000    0.95360   0.81850   0.31810   Biso      1.000     C          0.616142  
         C59       1.0000    0.15450   0.72670   0.22250   Biso      1.000     C          0.202215  
         C60       1.0000    0.02480   0.76220   0.28050   Biso      1.000     C          -0.03744  
         C61       1.0000    0.69290   0.53740   0.90770   Biso      1.000     C          0.610266  
         C62       1.0000    0.55560   0.38710   0.76640   Biso      1.000     C          0.567482  
         C63       1.0000    0.74910   0.48820   0.05770   Biso      1.000     C          -0.022125           
         C64       1.0000    0.88590   0.44810   0.01800   Biso      1.000     C          0.188054  
         C65       1.0000    0.52480   0.76220   0.21950   Biso      1.000     C          -0.037441           
         C66       1.0000    0.52130   0.67650   0.24100   Biso      1.000     C          0.029846  
         C67       1.0000    0.45360   0.81850   0.18190   Biso      1.000     C          0.616142  
         C68       1.0000    0.44440   0.61290   0.23360   Biso      1.000     C          0.567482  
         C69       1.0000    0.74250   0.49790   0.47310   Biso      1.000     C          -0.033803           
         C70       1.0000    0.75090   0.51180   0.55770   Biso      1.000     C          -0.022125           
         C71       1.0000    0.61410   0.55190   0.51800   Biso      1.000     C          0.188054  
         C72       1.0000    0.65450   0.72670   0.27750   Biso      1.000     C          0.202215  
         C73       1.0000    0.82690   0.49620   0.62130   Biso      1.000     C          0.611599  
         C74       1.0000    0.97520   0.23780   0.71950   Biso      1.000     C          -0.037441           
         C75       1.0000    0.97870   0.32350   0.74100   Biso      1.000     C          0.029846  
         C76       1.0000    0.84550   0.27330   0.77750   Biso      1.000     C          0.202215  
         C77       1.0000    0.04640   0.18150   0.68190   Biso      1.000     C          0.616142  
         C78       1.0000    0.05560   0.38710   0.73360   Biso      1.000     C          0.567482  
         C79       1.0000    0.75750   0.50210   0.97310   Biso      1.000     C          -0.033803           
         C80       1.0000    0.80710   0.46260   0.40770   Biso      1.000     C          0.610265  
         H1        1.0000    0.65530   0.32130   0.36620   Biso      1.000     H          0.417112  
         H2        1.0000    0.44700   0.07370   0.98080   Biso      1.000     H          0.086398  
         H3        1.0000    0.28470   0.23010   0.20090   Biso      1.000     H          0.094992  
         H4        1.0000    0.15530   0.17870   0.63380   Biso      1.000     H          0.417112  
         H5        1.0000    0.55300   0.57370   0.51920   Biso      1.000     H          0.086398  
         H6        1.0000    0.78470   0.26990   0.79910   Biso      1.000     H          0.094992  
         H7        1.0000    0.34470   0.82130   0.13380   Biso      1.000     H          0.417112  
         H8        1.0000    0.71530   0.73010   0.29910   Biso      1.000     H          0.094992  
         H9        1.0000    0.05300   0.92630   0.48080   Biso      1.000     H          0.086398  
         H10       1.0000    0.94700   0.42630   0.01920   Biso      1.000     H          0.086397  
         H11       1.0000    0.84470   0.67870   0.86620   Biso      1.000     H          0.417112  
         H12       1.0000    0.21530   0.76990   0.70090   Biso      1.000     H          0.094992  
         H13       1.0000    0.44700   0.42630   0.48080   Biso      1.000     H          0.086397  
         H14       1.0000    0.28470   0.26990   0.70090   Biso      1.000     H          0.094992  
         H15       1.0000    0.15530   0.32130   0.13380   Biso      1.000     H          0.417112  
         H16       1.0000    0.94700   0.07370   0.51920   Biso      1.000     H          0.086397  
         H17       1.0000    0.34470   0.67870   0.63380   Biso      1.000     H          0.417112  
         H18       1.0000    0.55300   0.92630   0.01920   Biso      1.000     H          0.086397  
         H19       1.0000    0.71530   0.76990   0.79910   Biso      1.000     H          0.094992  
         H20       1.0000    0.78470   0.23010   0.29910   Biso      1.000     H          0.094992  
         H21       1.0000    0.05300   0.57370   0.98080   Biso      1.000     H          0.086397  
         H22       1.0000    0.21530   0.73010   0.20090   Biso      1.000     H          0.094992  
         H23       1.0000    0.65530   0.17870   0.86620   Biso      1.000     H          0.417112  
         H24       1.0000    0.84470   0.82130   0.36620   Biso      1.000     H          0.417112  
         N1        1.0000    0.16820   0.95390   0.41440   Biso      1.000     N          -0.323479           
         N2        1.0000    0.38920   0.29280   0.25670   Biso      1.000     N          -0.34121  
         N3        1.0000    0.39560   0.15550   0.22160   Biso      1.000     N          -0.320695           
         N4        1.0000    0.34550   0.02430   0.05070   Biso      1.000     N          -0.334564           
         N5        1.0000    0.33180   0.04610   0.91440   Biso      1.000     N          -0.323479           
         N6        1.0000    0.11080   0.70720   0.75670   Biso      1.000     N          -0.34121  
         N7        1.0000    0.83180   0.45390   0.08560   Biso      1.000     N          -0.323479           
         N8        1.0000    0.10440   0.84450   0.72160   Biso      1.000     N          -0.320695           
         N9        1.0000    0.15450   0.97570   0.55070   Biso      1.000     N          -0.334563           
         N10       1.0000    0.38920   0.20720   0.75670   Biso      1.000     N          -0.34121  
         N11       1.0000    0.15450   0.52430   0.05070   Biso      1.000     N          -0.334564           
         N12       1.0000    0.34550   0.47570   0.55070   Biso      1.000     N          -0.334563           
         N13       1.0000    0.33180   0.45390   0.41440   Biso      1.000     N          -0.323479           
         N14       1.0000    0.11080   0.79280   0.25670   Biso      1.000     N          -0.34121  
         N15       1.0000    0.10440   0.65550   0.22160   Biso      1.000     N          -0.320695           
         N16       1.0000    0.16820   0.54610   0.91440   Biso      1.000     N          -0.323479           
         N17       1.0000    0.61080   0.70720   0.74330   Biso      1.000     N          -0.34121  
         N18       1.0000    0.60440   0.84450   0.77840   Biso      1.000     N          -0.320695           
         N19       1.0000    0.65450   0.97570   0.94930   Biso      1.000     N          -0.334564           
         N20       1.0000    0.66820   0.95390   0.08560   Biso      1.000     N          -0.323479           
         N21       1.0000    0.88920   0.29280   0.24330   Biso      1.000     N          -0.34121  
         N22       1.0000    0.84550   0.47570   0.94930   Biso      1.000     N          -0.334564           
         N23       1.0000    0.39560   0.34450   0.72160   Biso      1.000     N          -0.320695           
         N24       1.0000    0.89560   0.34450   0.77840   Biso      1.000     N          -0.320695           
         N25       1.0000    0.84550   0.02430   0.44930   Biso      1.000     N          -0.334564           
         N26       1.0000    0.66820   0.54610   0.58560   Biso      1.000     N          -0.323479           
         N27       1.0000    0.65450   0.52430   0.44930   Biso      1.000     N          -0.334564           
         N28       1.0000    0.60440   0.65550   0.27840   Biso      1.000     N          -0.320695           
         N29       1.0000    0.61080   0.79280   0.24330   Biso      1.000     N          -0.34121  
         N30       1.0000    0.83180   0.04610   0.58560   Biso      1.000     N          -0.323479           
         N31       1.0000    0.89560   0.15550   0.27840   Biso      1.000     N          -0.320695           
         N32       1.0000    0.88920   0.20720   0.74330   Biso      1.000     N          -0.34121  
         O1        1.0000    0.19390   0.02120   0.80700   Biso      1.000     O          -0.524295           
         O2        1.0000    0.97390   0.60490   0.82610   Biso      1.000     O          -0.535922           
         O3        1.0000    0.87530   0.71400   0.84000   Biso      1.000     O          -0.44436  
         O4        1.0000    0.86810   0.86550   0.80190   Biso      1.000     O          -0.567616           
         O5        1.0000    0.95760   0.95810   0.73500   Biso      1.000     O          -0.559852           
         O6        1.0000    0.39020   0.05820   0.57930   Biso      1.000     O          -0.559509           
         O7        1.0000    0.40270   0.03870   0.39630   Biso      1.000     O          -0.561625           
         O8        1.0000    0.30610   0.97880   0.30700   Biso      1.000     O          -0.524295           
         O9        1.0000    0.63190   0.36550   0.80190   Biso      1.000     O          -0.567616           
         O10       1.0000    0.62470   0.21400   0.84000   Biso      1.000     O          -0.44436  
         O11       1.0000    0.54240   0.45810   0.73500   Biso      1.000     O          -0.559852           
         O12       1.0000    0.23110   0.54630   0.66250   Biso      1.000     O          -0.540915           
         O13       1.0000    0.10980   0.55820   0.57930   Biso      1.000     O          -0.559509           
         O14       1.0000    0.09730   0.53870   0.39630   Biso      1.000     O          -0.561625           
         O15       1.0000    0.19390   0.47880   0.30700   Biso      1.000     O          -0.524295           
         O16       1.0000    0.97390   0.89510   0.32610   Biso      1.000     O          -0.535921           
         O17       1.0000    0.87530   0.78600   0.34000   Biso      1.000     O          -0.44436  
         O18       1.0000    0.52610   0.10490   0.82610   Biso      1.000     O          -0.535921           
         O19       1.0000    0.26890   0.04630   0.66250   Biso      1.000     O          -0.540915           
         O20       1.0000    0.12470   0.28600   0.16000   Biso      1.000     O          -0.44436  
         O21       1.0000    0.73110   0.95370   0.33750   Biso      1.000     O          -0.540915           
         O22       1.0000    0.09730   0.96130   0.89630   Biso      1.000     O          -0.561626           
         O23       1.0000    0.95760   0.54190   0.23500   Biso      1.000     O          -0.559852           
         O24       1.0000    0.26890   0.45370   0.16250   Biso      1.000     O          -0.540915           
         O25       1.0000    0.39020   0.44180   0.07930   Biso      1.000     O          -0.559509           
         O26       1.0000    0.40270   0.46130   0.89630   Biso      1.000     O          -0.561626           
         O27       1.0000    0.30610   0.52120   0.80700   Biso      1.000     O          -0.524295           
         O28       1.0000    0.86810   0.63450   0.30190   Biso      1.000     O          -0.567616           
         O29       1.0000    0.47390   0.60490   0.67390   Biso      1.000     O          -0.535921           
         O30       1.0000    0.60980   0.94180   0.42070   Biso      1.000     O          -0.559509           
         O31       1.0000    0.37530   0.71400   0.66000   Biso      1.000     O          -0.44436  
         O32       1.0000    0.45760   0.95810   0.76500   Biso      1.000     O          -0.559852           
         O33       1.0000    0.76890   0.04630   0.83750   Biso      1.000     O          -0.540915           
         O34       1.0000    0.89020   0.05820   0.92070   Biso      1.000     O          -0.559509           
         O35       1.0000    0.90270   0.03870   0.10370   Biso      1.000     O          -0.561626           
         O36       1.0000    0.80610   0.97880   0.19300   Biso      1.000     O          -0.524295           
         O37       1.0000    0.02610   0.39510   0.17390   Biso      1.000     O          -0.535922           
         O38       1.0000    0.13190   0.13450   0.19810   Biso      1.000     O          -0.567616           
         O39       1.0000    0.04240   0.04190   0.26500   Biso      1.000     O          -0.559852           
         O40       1.0000    0.36810   0.86550   0.69810   Biso      1.000     O          -0.567616           
         O41       1.0000    0.10980   0.94180   0.07930   Biso      1.000     O          -0.559509           
         O42       1.0000    0.69390   0.02120   0.69300   Biso      1.000     O          -0.524295           
         O43       1.0000    0.54240   0.04190   0.23500   Biso      1.000     O          -0.559852           
         O44       1.0000    0.23110   0.95370   0.16250   Biso      1.000     O          -0.540915           
         O45       1.0000    0.47390   0.89510   0.17390   Biso      1.000     O          -0.535922           
         O46       1.0000    0.37530   0.78600   0.16000   Biso      1.000     O          -0.44436  
         O47       1.0000    0.36810   0.63450   0.19810   Biso      1.000     O          -0.567616           
         O48       1.0000    0.45760   0.54190   0.26500   Biso      1.000     O          -0.559852           
         O49       1.0000    0.76890   0.45370   0.33750   Biso      1.000     O          -0.540915           
         O50       1.0000    0.89020   0.44180   0.42070   Biso      1.000     O          -0.559509           
         O51       1.0000    0.90270   0.46130   0.60370   Biso      1.000     O          -0.561625           
         O52       1.0000    0.80610   0.52120   0.69300   Biso      1.000     O          -0.524295           
         O53       1.0000    0.02610   0.10490   0.67390   Biso      1.000     O          -0.535921           
         O54       1.0000    0.59730   0.96130   0.60370   Biso      1.000     O          -0.561625           
         O55       1.0000    0.13190   0.36550   0.69810   Biso      1.000     O          -0.567616           
         O56       1.0000    0.04240   0.45810   0.76500   Biso      1.000     O          -0.559852           
         O57       1.0000    0.73110   0.54630   0.83750   Biso      1.000     O          -0.540915           
         O58       1.0000    0.60980   0.55820   0.92070   Biso      1.000     O          -0.559509           
         O59       1.0000    0.59730   0.53870   0.10370   Biso      1.000     O          -0.561626           
         O60       1.0000    0.69390   0.47880   0.19300   Biso      1.000     O          -0.524295           
         O61       1.0000    0.52610   0.39510   0.32610   Biso      1.000     O          -0.535922           
         O62       1.0000    0.62470   0.28600   0.34000   Biso      1.000     O          -0.44436  
         O63       1.0000    0.63190   0.13450   0.30190   Biso      1.000     O          -0.567616           
         O64       1.0000    0.12470   0.21400   0.66000   Biso      1.000     O          -0.44436  
         Zn1       1.0000    0.14597   0.93061   0.27817   Biso      1.000     Zn          0.875983  
         Zn2       1.0000    0.12042   0.98519   0.68771   Biso      1.000     Zn          0.863006  
         Zn3       1.0000    0.35403   0.06939   0.77817   Biso      1.000     Zn          0.875983  
         Zn4       1.0000    0.64597   0.56939   0.72183   Biso      1.000     Zn          0.875983  
         Zn5       1.0000    0.85403   0.43061   0.22183   Biso      1.000     Zn          0.875983  
         Zn6       1.0000    0.87958   0.48519   0.81229   Biso      1.000     Zn          0.863006  
         Zn7       1.0000    0.37958   0.48519   0.68771   Biso      1.000     Zn          0.863006  
         Zn8       1.0000    0.37958   0.01481   0.18771   Biso      1.000     Zn          0.863006  
         Zn9       1.0000    0.35403   0.43061   0.27817   Biso      1.000     Zn          0.875983  
         Zn10      1.0000    0.87958   0.01481   0.31229   Biso      1.000     Zn          0.863006  
         Zn11      1.0000    0.14597   0.56939   0.77817   Biso      1.000     Zn          0.875983  
         Zn12      1.0000    0.62042   0.98519   0.81229   Biso      1.000     Zn          0.863006  
         Zn13      1.0000    0.64597   0.93061   0.22183   Biso      1.000     Zn          0.875983  
         Zn14      1.0000    0.85403   0.06939   0.72183   Biso      1.000     Zn          0.875983  
         Zn15      1.0000    0.00000   0.50000   0.50000   Biso      1.000     Zn          1.08863   
         Zn16      1.0000    0.50000   0.50000   0.00000   Biso      1.000     Zn          1.088631  
         Zn17      1.0000    0.00000   0.00000   0.00000   Biso      1.000     Zn          1.088631  
         Zn18      1.0000    0.50000   0.00000   0.50000   Biso      1.000     Zn          1.08863   
         Zn19      1.0000    0.12042   0.51481   0.18771   Biso      1.000     Zn          0.863006  
         Zn20      1.0000    0.62042   0.51481   0.31229   Biso      1.000     Zn          0.863006 