
##########################################################################
#               Crystallographic Information Format file
#               Produced by PyCifRW module
#
#  This is a CIF file.  CIF has been adopted by the International
#  Union of Crystallography as the standard for data archiving and
#  transmission.
#
#  For information on this file format, follow the CIF links at
#  http://www.iucr.org
##########################################################################

data_image0

_cell_length_a                          12.7748
_cell_length_b                          12.7976
_cell_length_c                          13.3317
_cell_angle_alpha                       90
_cell_angle_beta                        90
_cell_angle_gamma                       90
_symmetry_space_group_name_H-M          'P 1'
_symmetry_int_tables_number             1
loop_
  _symmetry_equiv_pos_as_xyz
         'x, y, z' 
loop_
  _atom_site_label
  _atom_site_occupancy
  _atom_site_fract_x
  _atom_site_fract_y
  _atom_site_fract_z
  _atom_site_thermal_displace_type
  _atom_site_B_iso_or_equiv
  _atom_site_type_symbol
  _atom_site_charge
         C1        1.0000    0.47400   0.53500   0.67800   Biso      1.000     C          0.657891  
         C2        1.0000    0.00900   0.05300   0.21300   Biso      1.000     C          -0.028584           
         C3        1.0000    0.80000   0.75000   0.05300   Biso      1.000     C          0.006513  
         C4        1.0000    0.88100   0.75400   0.99000   Biso      1.000     C          -0.0037159999999999997        
         C5        1.0000    0.78600   0.76400   0.16400   Biso      1.000     C          0.658096  
         C6        1.0000    0.99800   0.76400   0.98900   Biso      1.000     C          0.675804  
         C7        1.0000    0.00800   0.25200   0.65700   Biso      1.000     C          0.66387   
         C8        1.0000    0.97400   0.46500   0.82200   Biso      1.000     C          0.657891  
         C9        1.0000    0.02600   0.03500   0.32200   Biso      1.000     C          0.65789   
         C10       1.0000    0.99100   0.44700   0.71300   Biso      1.000     C          -0.028579000000000004         
         C11       1.0000    0.30000   0.25000   0.44700   Biso      1.000     C          0.006513  
         C12       1.0000    0.38100   0.24600   0.51000   Biso      1.000     C          -0.0037119999999999996        
         C13       1.0000    0.28600   0.23600   0.33600   Biso      1.000     C          0.658096  
         C14       1.0000    0.49800   0.23600   0.51100   Biso      1.000     C          0.675805  
         C15       1.0000    0.50800   0.74800   0.84300   Biso      1.000     C          0.663871  
         C16       1.0000    0.49100   0.55300   0.78700   Biso      1.000     C          -0.028579000000000004         
         C17       1.0000    0.50400   0.63600   0.85100   Biso      1.000     C          0.035959  
         C18       1.0000    0.00400   0.36400   0.64900   Biso      1.000     C          0.035958  
         C19       1.0000    0.99200   0.24800   0.15700   Biso      1.000     C          0.66387   
         C20       1.0000    0.99600   0.13600   0.14900   Biso      1.000     C          0.035958  
         C21       1.0000    0.21400   0.73600   0.66400   Biso      1.000     C          0.658095  
         C22       1.0000    0.00200   0.73600   0.48900   Biso      1.000     C          0.6758029999999999  
         C23       1.0000    0.70000   0.25000   0.94700   Biso      1.000     C          0.006512  
         C24       1.0000    0.61900   0.25400   0.01000   Biso      1.000     C          -0.0037119999999999996        
         C25       1.0000    0.50200   0.26400   0.01100   Biso      1.000     C          0.675804  
         C26       1.0000    0.49200   0.75200   0.34300   Biso      1.000     C          0.66387   
         C27       1.0000    0.71400   0.26400   0.83600   Biso      1.000     C          0.658096  
         C28       1.0000    0.50900   0.94700   0.28700   Biso      1.000     C          -0.028582999999999997         
         C29       1.0000    0.49600   0.86400   0.35100   Biso      1.000     C          0.035958  
         C30       1.0000    0.20000   0.75000   0.55300   Biso      1.000     C          0.006512  
         C31       1.0000    0.11900   0.74600   0.49000   Biso      1.000     C          -0.0037119999999999996        
         C32       1.0000    0.52600   0.96500   0.17800   Biso      1.000     C          0.65789   
         N1        1.0000    0.99200   0.53800   0.65500   Biso      1.000     N          -0.330696           
         N2        1.0000    0.99400   0.98600   0.06100   Biso      1.000     N          0.0047090000000000005         
         N3        1.0000    0.99100   0.09100   0.05900   Biso      1.000     N          -0.41790200000000005          
         N4        1.0000    0.70700   0.73100   0.00300   Biso      1.000     N          -0.353647           
         N5        1.0000    0.73500   0.72800   0.90200   Biso      1.000     N          -0.0015   
         N6        1.0000    0.83700   0.74100   0.89300   Biso      1.000     N          -0.393298           
         N7        1.0000    0.50900   0.59100   0.94100   Biso      1.000     N          -0.41790900000000003          
         N8        1.0000    0.20700   0.26900   0.49700   Biso      1.000     N          -0.35365100000000005          
         N9        1.0000    0.00600   0.51400   0.56100   Biso      1.000     N          0.004751  
         N10       1.0000    0.49200   0.46200   0.84500   Biso      1.000     N          -0.33069699999999996          
         N11       1.0000    0.33700   0.25900   0.60700   Biso      1.000     N          -0.393341           
         N12       1.0000    0.23500   0.27200   0.59800   Biso      1.000     N          -0.001459           
         N13       1.0000    0.00900   0.40900   0.55900   Biso      1.000     N          -0.417908           
         N14       1.0000    0.00800   0.96200   0.15500   Biso      1.000     N          -0.330652           
         N15       1.0000    0.50600   0.48600   0.93900   Biso      1.000     N          0.004753  
         N16       1.0000    0.16300   0.75900   0.39300   Biso      1.000     N          -0.39334  
         N17       1.0000    0.26500   0.77200   0.40200   Biso      1.000     N          -0.001465           
         N18       1.0000    0.29300   0.76900   0.50300   Biso      1.000     N          -0.353645           
         N19       1.0000    0.49100   0.90900   0.44100   Biso      1.000     N          -0.417904           
         N20       1.0000    0.49400   0.01400   0.43900   Biso      1.000     N          0.004711  
         N21       1.0000    0.50800   0.03800   0.34500   Biso      1.000     N          -0.330652           
         N22       1.0000    0.66300   0.24100   0.10700   Biso      1.000     N          -0.39334  
         N23       1.0000    0.76500   0.22800   0.09800   Biso      1.000     N          -0.001465           
         N24       1.0000    0.79300   0.23100   0.99700   Biso      1.000     N          -0.353645           
         O1        1.0000    0.02700   0.11400   0.37900   Biso      1.000     O          -0.6397520000000001           
         O2        1.0000    0.99200   0.29600   0.06900   Biso      1.000     O          -0.6417430000000001           
         O3        1.0000    0.98600   0.29400   0.23800   Biso      1.000     O          -0.67698  
         O4        1.0000    0.69600   0.74300   0.20000   Biso      1.000     O          -0.62259  
         O5        1.0000    0.86300   0.79000   0.21500   Biso      1.000     O          -0.6312300000000001           
         O6        1.0000    0.04100   0.76700   0.90500   Biso      1.000     O          -0.615899           
         O7        1.0000    0.04700   0.75500   0.07200   Biso      1.000     O          -0.717071           
         O8        1.0000    0.96800   0.55700   0.85300   Biso      1.000     O          -0.597377           
         O9        1.0000    0.54700   0.24500   0.42800   Biso      1.000     O          -0.717072           
         O10       1.0000    0.47300   0.61400   0.62100   Biso      1.000     O          -0.6397520000000001           
         O11       1.0000    0.46800   0.44300   0.64700   Biso      1.000     O          -0.597376           
         O12       1.0000    0.00800   0.20400   0.56900   Biso      1.000     O          -0.6417430000000001           
         O13       1.0000    0.54100   0.23300   0.59500   Biso      1.000     O          -0.615898           
         O14       1.0000    0.36300   0.21000   0.28500   Biso      1.000     O          -0.6312300000000001           
         O15       1.0000    0.19600   0.25700   0.30000   Biso      1.000     O          -0.62259  
         O16       1.0000    0.01400   0.20600   0.73800   Biso      1.000     O          -0.67698  
         O17       1.0000    0.03200   0.94300   0.35300   Biso      1.000     O          -0.597377           
         O18       1.0000    0.97300   0.38600   0.87900   Biso      1.000     O          -0.6397520000000001           
         O19       1.0000    0.95300   0.74500   0.57200   Biso      1.000     O          -0.717071           
         O20       1.0000    0.51400   0.79400   0.76200   Biso      1.000     O          -0.67698  
         O21       1.0000    0.13700   0.71000   0.71500   Biso      1.000     O          -0.631229           
         O22       1.0000    0.50800   0.79600   0.93100   Biso      1.000     O          -0.6417430000000001           
         O23       1.0000    0.95900   0.73300   0.40500   Biso      1.000     O          -0.615898           
         O24       1.0000    0.63700   0.29000   0.78500   Biso      1.000     O          -0.631229           
         O25       1.0000    0.45900   0.26700   0.09500   Biso      1.000     O          -0.615898           
         O26       1.0000    0.45300   0.25500   0.92800   Biso      1.000     O          -0.717071           
         O27       1.0000    0.80400   0.24300   0.80000   Biso      1.000     O          -0.62259  
         O28       1.0000    0.52700   0.88600   0.12100   Biso      1.000     O          -0.6397520000000001           
         O29       1.0000    0.49200   0.70400   0.43100   Biso      1.000     O          -0.6417430000000001           
         O30       1.0000    0.48600   0.70600   0.26200   Biso      1.000     O          -0.67698  
         O31       1.0000    0.30400   0.75700   0.70000   Biso      1.000     O          -0.62259  
         O32       1.0000    0.53200   0.05700   0.14700   Biso      1.000     O          -0.597377           
         Sm1       1.0000    0.46030   0.79190   0.59480   Biso      1.000     Sm          1.9779689999999999  
         Sm2       1.0000    0.45740   0.28930   0.75420   Biso      1.000     Sm          1.991134  
         Sm3       1.0000    0.96030   0.20810   0.90520   Biso      1.000     Sm          1.9779689999999999  
         Sm4       1.0000    0.95740   0.71070   0.74580   Biso      1.000     Sm          1.9911299999999998  
         Sm5       1.0000    0.03970   0.29190   0.40520   Biso      1.000     Sm          1.977971  
         Sm6       1.0000    0.04260   0.78930   0.24580   Biso      1.000     Sm          1.991132  
         Sm7       1.0000    0.53970   0.70810   0.09480   Biso      1.000     Sm          1.97797   
         Sm8       1.0000    0.54260   0.21070   0.25420   Biso      1.000     Sm          1.991132 