
##########################################################################
#               Crystallographic Information Format file
#               Produced by PyCifRW module
#
#  This is a CIF file.  CIF has been adopted by the International
#  Union of Crystallography as the standard for data archiving and
#  transmission.
#
#  For information on this file format, follow the CIF links at
#  http://www.iucr.org
##########################################################################

data_image0

_cell_length_a                          8.9193
_cell_length_b                          12.1268
_cell_length_c                          16.7341
_cell_angle_alpha                       90
_cell_angle_beta                        90
_cell_angle_gamma                       109.184
_symmetry_space_group_name_H-M          'P 1'
_symmetry_int_tables_number             1
loop_
  _symmetry_equiv_pos_as_xyz
         'x, y, z' 
loop_
  _atom_site_label
  _atom_site_occupancy
  _atom_site_fract_x
  _atom_site_fract_y
  _atom_site_fract_z
  _atom_site_thermal_displace_type
  _atom_site_B_iso_or_equiv
  _atom_site_type_symbol
  _atom_site_charge
         C1        1.0000    0.00640   0.59840   0.54377   Biso      1.000     C          -0.20586999999999997          
         C2        1.0000    0.59990   0.20640   0.70003   Biso      1.000     C          -0.17159100000000002          
         C3        1.0000    0.23070   0.19510   0.01490   Biso      1.000     C          -0.175326           
         C4        1.0000    0.09990   0.20640   0.79997   Biso      1.000     C          -0.17159100000000002          
         C5        1.0000    0.89690   0.38560   0.74059   Biso      1.000     C          -0.190271           
         C6        1.0000    0.23460   0.60970   0.13580   Biso      1.000     C          -0.175533           
         C7        1.0000    0.37970   0.49550   0.61617   Biso      1.000     C          -0.227597           
         C8        1.0000    0.76790   0.80110   0.55895   Biso      1.000     C          0.701707  
         C9        1.0000    0.87790   0.49710   0.55083   Biso      1.000     C          -0.17619200000000002          
         C10       1.0000    0.37790   0.49710   0.94917   Biso      1.000     C          -0.17619200000000002          
         C11       1.0000    0.99570   0.45480   0.16795   Biso      1.000     C          0.244562  
         C12       1.0000    0.37630   0.30450   0.42531   Biso      1.000     C          -0.164466           
         C13       1.0000    0.48900   0.50850   0.26011   Biso      1.000     C          -0.190127           
         C14       1.0000    0.90010   0.79360   0.20003   Biso      1.000     C          -0.17159100000000002          
         C15       1.0000    0.23210   0.19890   0.44105   Biso      1.000     C          0.701707  
         C16       1.0000    0.01100   0.49150   0.76011   Biso      1.000     C          -0.190127           
         C17       1.0000    0.49360   0.40160   0.04377   Biso      1.000     C          -0.20586999999999997          
         C18       1.0000    0.98900   0.50850   0.23989   Biso      1.000     C          -0.190125           
         C19       1.0000    0.36960   0.39850   0.99282   Biso      1.000     C          0.234116  
         C20       1.0000    0.77600   0.33560   0.79365   Biso      1.000     C          0.24209499999999998           
         C21       1.0000    0.50640   0.59840   0.95623   Biso      1.000     C          -0.20586999999999997          
         C22       1.0000    0.12030   0.50450   0.11617   Biso      1.000     C          -0.227593           
         C23       1.0000    0.27600   0.33560   0.70635   Biso      1.000     C          0.242089  
         C24       1.0000    0.87970   0.49550   0.88383   Biso      1.000     C          -0.227597           
         C25       1.0000    0.39690   0.38560   0.75941   Biso      1.000     C          -0.19026400000000002          
         C26       1.0000    0.73460   0.60970   0.36420   Biso      1.000     C          -0.175534           
         C27       1.0000    0.65660   0.85570   0.02612   Biso      1.000     C          0.657832  
         C28       1.0000    0.60310   0.61440   0.24059   Biso      1.000     C          -0.190271           
         C29       1.0000    0.99360   0.40160   0.45623   Biso      1.000     C          -0.20586999999999997          
         C30       1.0000    0.00430   0.54520   0.83205   Biso      1.000     C          0.244567  
         C31       1.0000    0.49570   0.45480   0.33205   Biso      1.000     C          0.244565  
         C32       1.0000    0.72400   0.66440   0.29365   Biso      1.000     C          0.24209899999999998           
         C33       1.0000    0.94220   0.11040   0.79815   Biso      1.000     C          0.690444  
         C34       1.0000    0.76540   0.39030   0.86420   Biso      1.000     C          -0.175528           
         C35       1.0000    0.44220   0.11040   0.70185   Biso      1.000     C          0.690444  
         C36       1.0000    0.76930   0.80490   0.98510   Biso      1.000     C          -0.175326           
         C37       1.0000    0.12370   0.69550   0.92531   Biso      1.000     C          -0.164466           
         C38       1.0000    0.55780   0.88960   0.29815   Biso      1.000     C          0.690444  
         C39       1.0000    0.12210   0.50290   0.44917   Biso      1.000     C          -0.17619200000000002          
         C40       1.0000    0.86960   0.39850   0.50718   Biso      1.000     C          0.234116  
         C41       1.0000    0.40010   0.79360   0.29997   Biso      1.000     C          -0.17159100000000002          
         C42       1.0000    0.62210   0.50290   0.05083   Biso      1.000     C          -0.17619200000000002          
         C43       1.0000    0.73070   0.19510   0.48510   Biso      1.000     C          -0.175326           
         C44       1.0000    0.05780   0.88960   0.20185   Biso      1.000     C          0.690444  
         C45       1.0000    0.15660   0.85570   0.47388   Biso      1.000     C          0.657832  
         C46       1.0000    0.13040   0.60150   0.49282   Biso      1.000     C          0.234116  
         C47       1.0000    0.73210   0.19890   0.05895   Biso      1.000     C          0.701707  
         C48       1.0000    0.51100   0.49150   0.73989   Biso      1.000     C          -0.190128           
         C49       1.0000    0.84340   0.14430   0.52612   Biso      1.000     C          0.657832  
         C50       1.0000    0.22400   0.66440   0.20635   Biso      1.000     C          0.24209299999999997           
         C51       1.0000    0.34340   0.14430   0.97388   Biso      1.000     C          0.657832  
         C52       1.0000    0.10310   0.61440   0.25941   Biso      1.000     C          -0.19026500000000002          
         C53       1.0000    0.26540   0.39030   0.63580   Biso      1.000     C          -0.175527           
         C54       1.0000    0.50430   0.54520   0.66795   Biso      1.000     C          0.244567  
         C55       1.0000    0.87630   0.30450   0.07469   Biso      1.000     C          -0.164467           
         C56       1.0000    0.62370   0.69550   0.57469   Biso      1.000     C          -0.164467           
         C57       1.0000    0.62030   0.50450   0.38383   Biso      1.000     C          -0.227593           
         C58       1.0000    0.26790   0.80110   0.94105   Biso      1.000     C          0.701707  
         C59       1.0000    0.63040   0.60150   0.00718   Biso      1.000     C          0.234116  
         C60       1.0000    0.26930   0.80490   0.51490   Biso      1.000     C          -0.175326           
         H1        1.0000    0.37260   0.53250   0.56830   Biso      1.000     H          0.11499000000000001           
         H2        1.0000    0.58740   0.27700   0.67830   Biso      1.000     H          0.126987  
         H3        1.0000    0.08740   0.27700   0.82170   Biso      1.000     H          0.126987  
         H4        1.0000    0.90750   0.47350   0.27570   Biso      1.000     H          0.12775   
         H5        1.0000    0.74240   0.79470   0.92890   Biso      1.000     H          0.118396  
         H6        1.0000    0.70440   0.50470   0.08550   Biso      1.000     H          0.129593  
         H7        1.0000    0.87620   0.85980   0.98940   Biso      1.000     H          0.149149  
         H8        1.0000    0.32660   0.81610   0.33370   Biso      1.000     H          0.129431  
         H9        1.0000    0.88090   0.36400   0.03520   Biso      1.000     H          0.11170699999999999           
         H10       1.0000    0.59770   0.65090   0.19230   Biso      1.000     H          0.136898  
         H11       1.0000    0.02890   0.71730   0.93120   Biso      1.000     H          0.11804500000000001           
         H12       1.0000    0.09770   0.65090   0.30770   Biso      1.000     H          0.136898  
         H13       1.0000    0.47110   0.28270   0.43120   Biso      1.000     H          0.11804500000000001           
         H14       1.0000    0.09250   0.52650   0.72430   Biso      1.000     H          0.12775   
         H15       1.0000    0.20440   0.50470   0.41450   Biso      1.000     H          0.129593  
         H16       1.0000    0.52890   0.71730   0.56880   Biso      1.000     H          0.11804500000000001           
         H17       1.0000    0.50970   0.66430   0.92690   Biso      1.000     H          0.12627   
         H18       1.0000    0.40230   0.34910   0.80770   Biso      1.000     H          0.136898  
         H19       1.0000    0.81870   0.64330   0.39890   Biso      1.000     H          0.12701500000000002           
         H20       1.0000    0.41260   0.72300   0.32170   Biso      1.000     H          0.126987  
         H21       1.0000    0.90230   0.34910   0.69230   Biso      1.000     H          0.136898  
         H22       1.0000    0.31870   0.64330   0.10110   Biso      1.000     H          0.12701500000000002           
         H23       1.0000    0.82660   0.81610   0.16630   Biso      1.000     H          0.129431  
         H24       1.0000    0.25760   0.20530   0.07110   Biso      1.000     H          0.118396  
         H25       1.0000    0.79560   0.49530   0.58550   Biso      1.000     H          0.129593  
         H26       1.0000    0.59250   0.52650   0.77570   Biso      1.000     H          0.12775   
         H27       1.0000    0.61910   0.63600   0.53520   Biso      1.000     H          0.11170699999999999           
         H28       1.0000    0.38090   0.36400   0.46480   Biso      1.000     H          0.11170699999999999           
         H29       1.0000    0.12740   0.46750   0.06830   Biso      1.000     H          0.11499000000000001           
         H30       1.0000    0.99030   0.33570   0.42690   Biso      1.000     H          0.12627   
         H31       1.0000    0.17340   0.18390   0.83370   Biso      1.000     H          0.129431  
         H32       1.0000    0.18130   0.35670   0.60110   Biso      1.000     H          0.12701400000000002           
         H33       1.0000    0.68130   0.35670   0.89890   Biso      1.000     H          0.12701400000000002           
         H34       1.0000    0.00970   0.66430   0.57310   Biso      1.000     H          0.12627   
         H35       1.0000    0.97110   0.28270   0.06880   Biso      1.000     H          0.11804500000000001           
         H36       1.0000    0.29560   0.49530   0.91450   Biso      1.000     H          0.129593  
         H37       1.0000    0.62740   0.46750   0.43170   Biso      1.000     H          0.11499000000000001           
         H38       1.0000    0.67340   0.18390   0.66630   Biso      1.000     H          0.129431  
         H39       1.0000    0.62380   0.14020   0.48940   Biso      1.000     H          0.149149  
         H40       1.0000    0.37620   0.85980   0.51060   Biso      1.000     H          0.149149  
         H41       1.0000    0.75760   0.20530   0.42890   Biso      1.000     H          0.118396  
         H42       1.0000    0.49030   0.33570   0.07310   Biso      1.000     H          0.12627   
         H43       1.0000    0.24240   0.79470   0.57110   Biso      1.000     H          0.118396  
         H44       1.0000    0.12380   0.14020   0.01060   Biso      1.000     H          0.149149  
         H45       1.0000    0.91260   0.72300   0.17830   Biso      1.000     H          0.126987  
         H46       1.0000    0.11910   0.63600   0.96480   Biso      1.000     H          0.11170699999999999           
         H47       1.0000    0.40750   0.47350   0.22430   Biso      1.000     H          0.12775   
         H48       1.0000    0.87260   0.53250   0.93170   Biso      1.000     H          0.11499100000000001           
         O1        1.0000    0.66070   0.22708   0.77998   Biso      1.000     O          -0.293561           
         O2        1.0000    0.23360   0.30402   0.98251   Biso      1.000     O          -0.1925   
         O3        1.0000    0.35600   0.09990   0.64227   Biso      1.000     O          -0.671977           
         O4        1.0000    0.85600   0.09990   0.85773   Biso      1.000     O          -0.671977           
         O5        1.0000    0.86860   0.05844   0.49269   Biso      1.000     O          -0.761875           
         O6        1.0000    0.13140   0.94156   0.50731   Biso      1.000     O          -0.761875           
         O7        1.0000    0.59670   0.81797   0.09165   Biso      1.000     O          -0.5892270000000001           
         O8        1.0000    0.12550   0.64861   0.84777   Biso      1.000     O          -0.19221300000000002          
         O9        1.0000    0.64400   0.90010   0.35773   Biso      1.000     O          -0.671977           
         O10       1.0000    0.26640   0.69598   0.48251   Biso      1.000     O          -0.1925   
         O11       1.0000    0.20080   0.18244   0.51362   Biso      1.000     O          -0.666854           
         O12       1.0000    0.73360   0.30402   0.51749   Biso      1.000     O          -0.192501           
         O13       1.0000    0.59130   0.95373   0.23718   Biso      1.000     O          -0.6853640000000001           
         O14       1.0000    0.14400   0.90010   0.14227   Biso      1.000     O          -0.671977           
         O15       1.0000    0.87450   0.35139   0.15223   Biso      1.000     O          -0.19221300000000002          
         O16       1.0000    0.62550   0.64861   0.65223   Biso      1.000     O          -0.19221300000000002          
         O17       1.0000    0.70080   0.18244   0.98638   Biso      1.000     O          -0.666854           
         O18       1.0000    0.84000   0.86344   0.61583   Biso      1.000     O          -0.666746           
         O19       1.0000    0.36860   0.05844   0.00731   Biso      1.000     O          -0.761875           
         O20       1.0000    0.16070   0.22708   0.72002   Biso      1.000     O          -0.29356  
         O21       1.0000    0.40330   0.18203   0.90835   Biso      1.000     O          -0.5892270000000001           
         O22       1.0000    0.40870   0.04627   0.76282   Biso      1.000     O          -0.6853640000000001           
         O23       1.0000    0.09670   0.81797   0.40835   Biso      1.000     O          -0.5892270000000001           
         O24       1.0000    0.79920   0.81756   0.48638   Biso      1.000     O          -0.666853           
         O25       1.0000    0.63140   0.94156   0.99269   Biso      1.000     O          -0.761875           
         O26       1.0000    0.90870   0.04627   0.73718   Biso      1.000     O          -0.6853640000000001           
         O27       1.0000    0.09130   0.95373   0.26282   Biso      1.000     O          -0.6853640000000001           
         O28       1.0000    0.29920   0.81756   0.01362   Biso      1.000     O          -0.666853           
         O29       1.0000    0.83930   0.77292   0.27998   Biso      1.000     O          -0.293561           
         O30       1.0000    0.90330   0.18203   0.59165   Biso      1.000     O          -0.5892270000000001           
         O31       1.0000    0.66000   0.13656   0.11583   Biso      1.000     O          -0.666746           
         O32       1.0000    0.76640   0.69598   0.01749   Biso      1.000     O          -0.1925   
         O33       1.0000    0.37450   0.35139   0.34777   Biso      1.000     O          -0.19221300000000002          
         O34       1.0000    0.33930   0.77292   0.22002   Biso      1.000     O          -0.293561           
         O35       1.0000    0.34000   0.86344   0.88417   Biso      1.000     O          -0.666746           
         O36       1.0000    0.16000   0.13656   0.38417   Biso      1.000     O          -0.666746           
         Pr1       1.0000    0.06832   0.04825   0.61671   Biso      1.000     Pr          2.1102939999999997  
         Pr2       1.0000    0.56832   0.04825   0.88329   Biso      1.000     Pr          2.1102939999999997  
         Pr3       1.0000    0.43168   0.95175   0.11671   Biso      1.000     Pr          2.1102939999999997  
         Pr4       1.0000    0.93168   0.95175   0.38329   Biso      1.000     Pr          2.1102939999999997 