
##########################################################################
#               Crystallographic Information Format file
#               Produced by PyCifRW module
#
#  This is a CIF file.  CIF has been adopted by the International
#  Union of Crystallography as the standard for data archiving and
#  transmission.
#
#  For information on this file format, follow the CIF links at
#  http://www.iucr.org
##########################################################################

data_image0

_cell_length_a                          7.2806
_cell_length_b                          10.1075
_cell_length_c                          18.2421
_cell_angle_alpha                       90
_cell_angle_beta                        90
_cell_angle_gamma                       94.886
_symmetry_space_group_name_H-M          'P 1'
_symmetry_int_tables_number             1
loop_
  _symmetry_equiv_pos_as_xyz
         'x, y, z' 
loop_
  _atom_site_label
  _atom_site_occupancy
  _atom_site_fract_x
  _atom_site_fract_y
  _atom_site_fract_z
  _atom_site_thermal_displace_type
  _atom_site_B_iso_or_equiv
  _atom_site_type_symbol
  _atom_site_charge
         C1        1.0000    0.78800   0.81170   0.44426   Biso      1.000     C          0.622624  
         C2        1.0000    0.21580   0.42230   0.09753   Biso      1.000     C          7.8e-05   
         C3        1.0000    0.09210   0.63030   0.17964   Biso      1.000     C          -0.104868           
         C4        1.0000    0.21200   0.18830   0.55574   Biso      1.000     C          0.622627  
         C5        1.0000    0.31190   0.95720   0.56344   Biso      1.000     C          -0.113911           
         C6        1.0000    0.40830   0.01210   0.79402   Biso      1.000     C          0.629838  
         C7        1.0000    0.37750   0.98890   0.71352   Biso      1.000     C          -0.011972           
         C8        1.0000    0.31480   0.09160   0.67221   Biso      1.000     C          -0.097152           
         C9        1.0000    0.37420   0.85510   0.60517   Biso      1.000     C          -0.084131           
         C10       1.0000    0.28420   0.07770   0.59753   Biso      1.000     C          7.5e-05   
         C11       1.0000    0.40790   0.86970   0.67964   Biso      1.000     C          -0.104869           
         C12       1.0000    0.12250   0.51110   0.21352   Biso      1.000     C          -0.011973           
         C13       1.0000    0.09170   0.48790   0.29402   Biso      1.000     C          0.629837  
         C14       1.0000    0.18810   0.54280   0.06344   Biso      1.000     C          -0.113912           
         C15       1.0000    0.28800   0.31170   0.05574   Biso      1.000     C          0.622625  
         C16       1.0000    0.59210   0.13030   0.32036   Biso      1.000     C          -0.104868           
         C17       1.0000    0.71580   0.92230   0.40247   Biso      1.000     C          7.8e-05   
         C18       1.0000    0.62580   0.14490   0.39483   Biso      1.000     C          -0.084128           
         C19       1.0000    0.68520   0.90840   0.32779   Biso      1.000     C          -0.09715  
         C20       1.0000    0.62250   0.01110   0.28648   Biso      1.000     C          -0.011974           
         C21       1.0000    0.59170   0.98790   0.20598   Biso      1.000     C          0.629834  
         C22       1.0000    0.68810   0.04280   0.43656   Biso      1.000     C          -0.113912           
         C23       1.0000    0.90790   0.36970   0.82036   Biso      1.000     C          -0.104867           
         C24       1.0000    0.78420   0.57770   0.90247   Biso      1.000     C          7.9e-05   
         C25       1.0000    0.87420   0.35510   0.89483   Biso      1.000     C          -0.084126           
         C26       1.0000    0.81480   0.59160   0.82779   Biso      1.000     C          -0.097151           
         C27       1.0000    0.87750   0.48890   0.78648   Biso      1.000     C          -0.011973           
         C28       1.0000    0.90830   0.51210   0.70598   Biso      1.000     C          0.629834  
         C29       1.0000    0.81190   0.45720   0.93656   Biso      1.000     C          -0.113912           
         C30       1.0000    0.71200   0.68830   0.94426   Biso      1.000     C          0.622624  
         C31       1.0000    0.12580   0.64490   0.10517   Biso      1.000     C          -0.084128           
         C32       1.0000    0.18520   0.40840   0.17221   Biso      1.000     C          -0.097153           
         Cu1       1.0000    0.55158   0.93579   0.93149   Biso      1.000     Cu          1.062633  
         Cu2       1.0000    0.94842   0.56421   0.43149   Biso      1.000     Cu          1.062642  
         Cu3       1.0000    0.86617   0.71698   0.59242   Biso      1.000     Cu          0.977032  
         Cu4       1.0000    0.63383   0.78302   0.09242   Biso      1.000     Cu          0.977029  
         Cu5       1.0000    0.44842   0.06421   0.06851   Biso      1.000     Cu          1.062631  
         Cu6       1.0000    0.13383   0.28302   0.40758   Biso      1.000     Cu          0.977038  
         Cu7       1.0000    0.05158   0.43579   0.56851   Biso      1.000     Cu          1.062642  
         Cu8       1.0000    0.36617   0.21698   0.90758   Biso      1.000     Cu          0.977028  
         H1        1.0000    0.78900   0.44550   0.98640   Biso      1.000     H          0.135106  
         H2        1.0000    0.45040   0.80040   0.70660   Biso      1.000     H          0.138186  
         H3        1.0000    0.79310   0.67100   0.80490   Biso      1.000     H          0.136897  
         H4        1.0000    0.28900   0.94550   0.51360   Biso      1.000     H          0.135106  
         H5        1.0000    0.04960   0.69960   0.20660   Biso      1.000     H          0.138186  
         H6        1.0000    0.20690   0.32900   0.19510   Biso      1.000     H          0.136898  
         H7        1.0000    0.21100   0.55450   0.01360   Biso      1.000     H          0.135106  
         H8        1.0000    0.54960   0.19960   0.29340   Biso      1.000     H          0.138187  
         H9        1.0000    0.70690   0.82900   0.30490   Biso      1.000     H          0.136897  
         H10       1.0000    0.71100   0.05450   0.48640   Biso      1.000     H          0.135106  
         H11       1.0000    0.29310   0.17100   0.69510   Biso      1.000     H          0.136897  
         H12       1.0000    0.95040   0.30040   0.79340   Biso      1.000     H          0.138187  
         O1        1.0000    0.70510   0.79670   0.90927   Biso      1.000     O          -0.474716           
         O2        1.0000    0.28180   0.87630   0.09307   Biso      1.000     O          -0.685976           
         O3        1.0000    0.45150   0.35740   0.40185   Biso      1.000     O          -0.585132           
         O4        1.0000    0.83650   0.83260   0.50967   Biso      1.000     O          -0.561743           
         O5        1.0000    0.60760   0.29130   0.51227   Biso      1.000     O          -0.565414           
         O6        1.0000    0.61560   0.87320   0.18446   Biso      1.000     O          -0.51601  
         O7        1.0000    0.63400   0.94750   0.03495   Biso      1.000     O          -0.635629           
         O8        1.0000    0.66350   0.66740   0.00967   Biso      1.000     O          -0.561743           
         O9        1.0000    0.54480   0.08380   0.16761   Biso      1.000     O          -0.477522           
         O10       1.0000    0.78180   0.37630   0.40693   Biso      1.000     O          -0.685981           
         O11       1.0000    0.04850   0.14260   0.90185   Biso      1.000     O          -0.585128           
         O12       1.0000    0.89240   0.20870   0.01227   Biso      1.000     O          -0.565412           
         O13       1.0000    0.88440   0.62680   0.68446   Biso      1.000     O          -0.51601  
         O14       1.0000    0.86600   0.55250   0.53495   Biso      1.000     O          -0.635638           
         O15       1.0000    0.04480   0.58380   0.33239   Biso      1.000     O          -0.477523           
         O16       1.0000    0.79490   0.70330   0.40927   Biso      1.000     O          -0.474717           
         O17       1.0000    0.29490   0.20330   0.09073   Biso      1.000     O          -0.474716           
         O18       1.0000    0.36600   0.05250   0.96505   Biso      1.000     O          -0.635623           
         O19       1.0000    0.11560   0.37320   0.31554   Biso      1.000     O          -0.516014           
         O20       1.0000    0.95520   0.41620   0.66761   Biso      1.000     O          -0.477522           
         O21       1.0000    0.54850   0.64260   0.59815   Biso      1.000     O          -0.585129           
         O22       1.0000    0.16350   0.16740   0.49033   Biso      1.000     O          -0.561746           
         O23       1.0000    0.13400   0.44750   0.46505   Biso      1.000     O          -0.635634           
         O24       1.0000    0.38440   0.12680   0.81554   Biso      1.000     O          -0.516013           
         O25       1.0000    0.39240   0.70870   0.48773   Biso      1.000     O          -0.565412           
         O26       1.0000    0.45520   0.91620   0.83239   Biso      1.000     O          -0.477522           
         O27       1.0000    0.21820   0.62370   0.59307   Biso      1.000     O          -0.685979           
         O28       1.0000    0.95150   0.85740   0.09815   Biso      1.000     O          -0.585127           
         O29       1.0000    0.33650   0.33260   0.99033   Biso      1.000     O          -0.561746           
         O30       1.0000    0.10760   0.79130   0.98773   Biso      1.000     O          -0.565411           
         O31       1.0000    0.20510   0.29670   0.59073   Biso      1.000     O          -0.474717           
         O32       1.0000    0.71820   0.12370   0.90693   Biso      1.000     O          -0.685977           
         S1        1.0000    0.88616   0.19646   0.93348   Biso      1.000     S          1.211779  
         S2        1.0000    0.61384   0.30354   0.43348   Biso      1.000     S          1.211784  
         S3        1.0000    0.11384   0.80354   0.06652   Biso      1.000     S          1.211778  
         S4        1.0000    0.38616   0.69646   0.56652   Biso      1.000     S          1.211782 