
##########################################################################
#               Crystallographic Information Format file
#               Produced by PyCifRW module
#
#  This is a CIF file.  CIF has been adopted by the International
#  Union of Crystallography as the standard for data archiving and
#  transmission.
#
#  For information on this file format, follow the CIF links at
#  http://www.iucr.org
##########################################################################

data_image0

_cell_length_a                          7.3413
_cell_length_b                          10.1557
_cell_length_c                          18.175
_cell_angle_alpha                       90
_cell_angle_beta                        90
_cell_angle_gamma                       94.32
_symmetry_space_group_name_H-M          'P 1'
_symmetry_int_tables_number             1
loop_
  _symmetry_equiv_pos_as_xyz
         'x, y, z' 
loop_
  _atom_site_label
  _atom_site_occupancy
  _atom_site_fract_x
  _atom_site_fract_y
  _atom_site_fract_z
  _atom_site_thermal_displace_type
  _atom_site_B_iso_or_equiv
  _atom_site_type_symbol
  _atom_site_charge
         C1        1.0000    0.29800   0.81770   0.44620   Biso      1.000     C          0.627729  
         C2        1.0000    0.72680   0.42970   0.09554   Biso      1.000     C          -0.004342           
         C3        1.0000    0.63640   0.65070   0.10449   Biso      1.000     C          -0.086588           
         C4        1.0000    0.70200   0.18230   0.55380   Biso      1.000     C          0.627733  
         C5        1.0000    0.80170   0.95030   0.56180   Biso      1.000     C          -0.11450899999999999          
         C6        1.0000    0.90000   0.86520   0.67934   Biso      1.000     C          -0.109696           
         C7        1.0000    0.90450   0.00900   0.79288   Biso      1.000     C          0.632958  
         C8        1.0000    0.87000   0.98510   0.71238   Biso      1.000     C          -0.008646           
         C9        1.0000    0.80520   0.08610   0.67068   Biso      1.000     C          -0.100437           
         C10       1.0000    0.77320   0.07030   0.59554   Biso      1.000     C          -0.004340999999999999         
         C11       1.0000    0.86360   0.84930   0.60449   Biso      1.000     C          -0.08658500000000001          
         C12       1.0000    0.59550   0.49100   0.29288   Biso      1.000     C          0.632959  
         C13       1.0000    0.60000   0.63480   0.17934   Biso      1.000     C          -0.109699           
         C14       1.0000    0.69830   0.54970   0.06180   Biso      1.000     C          -0.114514           
         C15       1.0000    0.79800   0.31770   0.05380   Biso      1.000     C          0.627731  
         C16       1.0000    0.13640   0.15070   0.39551   Biso      1.000     C          -0.086582           
         C17       1.0000    0.22680   0.92970   0.40446   Biso      1.000     C          -0.00434  
         C18       1.0000    0.19480   0.91390   0.32932   Biso      1.000     C          -0.100437           
         C19       1.0000    0.13000   0.01490   0.28762   Biso      1.000     C          -0.008641           
         C20       1.0000    0.09550   0.99100   0.20712   Biso      1.000     C          0.632959  
         C21       1.0000    0.10000   0.13480   0.32066   Biso      1.000     C          -0.109704           
         C22       1.0000    0.19830   0.04970   0.43820   Biso      1.000     C          -0.11451199999999999          
         C23       1.0000    0.36360   0.34930   0.89551   Biso      1.000     C          -0.086588           
         C24       1.0000    0.27320   0.57030   0.90446   Biso      1.000     C          -0.00434  
         C25       1.0000    0.30520   0.58610   0.82932   Biso      1.000     C          -0.100436           
         C26       1.0000    0.37000   0.48510   0.78762   Biso      1.000     C          -0.008637           
         C27       1.0000    0.40450   0.50900   0.70712   Biso      1.000     C          0.632953  
         C28       1.0000    0.40000   0.36520   0.82066   Biso      1.000     C          -0.109699           
         C29       1.0000    0.30170   0.45030   0.93820   Biso      1.000     C          -0.114516           
         C30       1.0000    0.20200   0.68230   0.94620   Biso      1.000     C          0.62773   
         C31       1.0000    0.69480   0.41390   0.17068   Biso      1.000     C          -0.10043400000000001          
         C32       1.0000    0.63000   0.51490   0.21238   Biso      1.000     C          -0.00864  
         Cu1       1.0000    0.86637   0.21779   0.90565   Biso      1.000     Cu          0.973858  
         Cu2       1.0000    0.63363   0.28221   0.40565   Biso      1.000     Cu          0.9738459999999999  
         Cu3       1.0000    0.04588   0.93247   0.93157   Biso      1.000     Cu          1.065635  
         Cu4       1.0000    0.45412   0.56753   0.43157   Biso      1.000     Cu          1.0656370000000002  
         Cu5       1.0000    0.13363   0.78221   0.09435   Biso      1.000     Cu          0.973852  
         Cu6       1.0000    0.95412   0.06753   0.06843   Biso      1.000     Cu          1.0656379999999999  
         Cu7       1.0000    0.36637   0.71779   0.59435   Biso      1.000     Cu          0.9738379999999999  
         Cu8       1.0000    0.54588   0.43247   0.56843   Biso      1.000     Cu          1.065639  
         H1        1.0000    0.27960   0.43800   0.98820   Biso      1.000     H          0.135848  
         H2        1.0000    0.78270   0.16550   0.69320   Biso      1.000     H          0.137631  
         H3        1.0000    0.44350   0.29680   0.79330   Biso      1.000     H          0.140596  
         H4        1.0000    0.77960   0.93800   0.51180   Biso      1.000     H          0.135848  
         H5        1.0000    0.71730   0.33450   0.19320   Biso      1.000     H          0.13763399999999998           
         H6        1.0000    0.55650   0.70320   0.20670   Biso      1.000     H          0.140597  
         H7        1.0000    0.72040   0.56200   0.01180   Biso      1.000     H          0.135847  
         H8        1.0000    0.21730   0.83450   0.30680   Biso      1.000     H          0.137632  
         H9        1.0000    0.05650   0.20320   0.29330   Biso      1.000     H          0.140595  
         H10       1.0000    0.22040   0.06200   0.48820   Biso      1.000     H          0.135848  
         H11       1.0000    0.94350   0.79680   0.70670   Biso      1.000     H          0.140593  
         H12       1.0000    0.28270   0.66550   0.80680   Biso      1.000     H          0.137632  
         O1        1.0000    0.19020   0.78740   0.91032   Biso      1.000     O          -0.47765  
         O2        1.0000    0.45030   0.85740   0.09495   Biso      1.000     O          -0.582275           
         O3        1.0000    0.04960   0.08502   0.16797   Biso      1.000     O          -0.47606800000000005          
         O4        1.0000    0.12910   0.94283   0.03504   Biso      1.000     O          -0.646204           
         O5        1.0000    0.34130   0.83720   0.51243   Biso      1.000     O          -0.561426           
         O6        1.0000    0.11650   0.87471   0.18615   Biso      1.000     O          -0.525358           
         O7        1.0000    0.12110   0.29790   0.51271   Biso      1.000     O          -0.5632010000000001           
         O8        1.0000    0.37090   0.55717   0.53504   Biso      1.000     O          -0.646223           
         O9        1.0000    0.27440   0.38610   0.40426   Biso      1.000     O          -0.67132  
         O10       1.0000    0.95030   0.35740   0.40505   Biso      1.000     O          -0.582279           
         O11       1.0000    0.45040   0.41498   0.66797   Biso      1.000     O          -0.476075           
         O12       1.0000    0.15870   0.66280   0.01243   Biso      1.000     O          -0.561425           
         O13       1.0000    0.38350   0.62529   0.68615   Biso      1.000     O          -0.525364           
         O14       1.0000    0.37890   0.20210   0.01271   Biso      1.000     O          -0.563196           
         O15       1.0000    0.77440   0.88610   0.09574   Biso      1.000     O          -0.6713180000000001           
         O16       1.0000    0.30980   0.71260   0.41032   Biso      1.000     O          -0.477662           
         O17       1.0000    0.80980   0.21260   0.08968   Biso      1.000     O          -0.477656           
         O18       1.0000    0.87890   0.70210   0.48729   Biso      1.000     O          -0.5632   
         O19       1.0000    0.61650   0.37471   0.31385   Biso      1.000     O          -0.525363           
         O20       1.0000    0.22560   0.11390   0.90426   Biso      1.000     O          -0.671308           
         O21       1.0000    0.95040   0.91498   0.83203   Biso      1.000     O          -0.47606499999999996          
         O22       1.0000    0.87090   0.05717   0.96496   Biso      1.000     O          -0.646216           
         O23       1.0000    0.62110   0.79790   0.98729   Biso      1.000     O          -0.563198           
         O24       1.0000    0.88350   0.12529   0.81385   Biso      1.000     O          -0.525357           
         O25       1.0000    0.65870   0.16280   0.48757   Biso      1.000     O          -0.561425           
         O26       1.0000    0.72560   0.61390   0.59574   Biso      1.000     O          -0.671313           
         O27       1.0000    0.04970   0.64260   0.59495   Biso      1.000     O          -0.582271           
         O28       1.0000    0.54960   0.58502   0.33203   Biso      1.000     O          -0.476076           
         O29       1.0000    0.62910   0.44283   0.46496   Biso      1.000     O          -0.646207           
         O30       1.0000    0.84130   0.33720   0.98757   Biso      1.000     O          -0.561427           
         O31       1.0000    0.69020   0.28740   0.58968   Biso      1.000     O          -0.477659           
         O32       1.0000    0.54970   0.14260   0.90505   Biso      1.000     O          -0.582266           
         S1        1.0000    0.38200   0.19083   0.93448   Biso      1.000     S          1.213478  
         S2        1.0000    0.11800   0.30917   0.43448   Biso      1.000     S          1.2134770000000001  
         S3        1.0000    0.61800   0.80917   0.06552   Biso      1.000     S          1.2134850000000001  
         S4        1.0000    0.88200   0.69083   0.56552   Biso      1.000     S          1.2134770000000001 