
##########################################################################
#               Crystallographic Information Format file
#               Produced by PyCifRW module
#
#  This is a CIF file.  CIF has been adopted by the International
#  Union of Crystallography as the standard for data archiving and
#  transmission.
#
#  For information on this file format, follow the CIF links at
#  http://www.iucr.org
##########################################################################

data_image0

_cell_length_a                          7.355
_cell_length_b                          10.152
_cell_length_c                          18.215
_cell_angle_alpha                       90
_cell_angle_beta                        90
_cell_angle_gamma                       94.502
_symmetry_space_group_name_H-M          'P 1'
_symmetry_int_tables_number             1
loop_
  _symmetry_equiv_pos_as_xyz
         'x, y, z' 
loop_
  _atom_site_label
  _atom_site_occupancy
  _atom_site_fract_x
  _atom_site_fract_y
  _atom_site_fract_z
  _atom_site_thermal_displace_type
  _atom_site_B_iso_or_equiv
  _atom_site_type_symbol
  _atom_site_charge
         C1        1.0000    0.29260   0.81450   0.44509   Biso      1.000     C          0.6198899999999999  
         C2        1.0000    0.72210   0.42650   0.09643   Biso      1.000     C          -0.004046           
         C3        1.0000    0.63120   0.64830   0.10488   Biso      1.000     C          -0.082689           
         C4        1.0000    0.70740   0.18550   0.55491   Biso      1.000     C          0.619863  
         C5        1.0000    0.80760   0.95320   0.56291   Biso      1.000     C          -0.11383499999999999          
         C6        1.0000    0.90500   0.86750   0.67979   Biso      1.000     C          -0.105797           
         C7        1.0000    0.90710   0.01080   0.79337   Biso      1.000     C          0.631842  
         C8        1.0000    0.87410   0.98690   0.71319   Biso      1.000     C          -0.011653           
         C9        1.0000    0.81040   0.08890   0.67157   Biso      1.000     C          -0.09686499999999999          
         C10       1.0000    0.77790   0.07350   0.59643   Biso      1.000     C          -0.003914           
         C11       1.0000    0.86880   0.85170   0.60488   Biso      1.000     C          -0.082466           
         C12       1.0000    0.59290   0.48920   0.29337   Biso      1.000     C          0.631686  
         C13       1.0000    0.59500   0.63250   0.17979   Biso      1.000     C          -0.105742           
         C14       1.0000    0.69240   0.54680   0.06291   Biso      1.000     C          -0.114095           
         C15       1.0000    0.79260   0.31450   0.05491   Biso      1.000     C          0.619927  
         C16       1.0000    0.13120   0.14830   0.39512   Biso      1.000     C          -0.082459           
         C17       1.0000    0.22210   0.92650   0.40357   Biso      1.000     C          -0.003918           
         C18       1.0000    0.18960   0.91110   0.32843   Biso      1.000     C          -0.096859           
         C19       1.0000    0.12590   0.01310   0.28681   Biso      1.000     C          -0.011654000000000001         
         C20       1.0000    0.09290   0.98920   0.20663   Biso      1.000     C          0.631835  
         C21       1.0000    0.09500   0.13250   0.32021   Biso      1.000     C          -0.105794           
         C22       1.0000    0.19240   0.04680   0.43709   Biso      1.000     C          -0.113824           
         C23       1.0000    0.36880   0.35170   0.89512   Biso      1.000     C          -0.082705           
         C24       1.0000    0.27790   0.57350   0.90357   Biso      1.000     C          -0.004052           
         C25       1.0000    0.31040   0.58890   0.82843   Biso      1.000     C          -0.096759           
         C26       1.0000    0.37410   0.48690   0.78681   Biso      1.000     C          -0.011341           
         C27       1.0000    0.40710   0.51080   0.70663   Biso      1.000     C          0.631711  
         C28       1.0000    0.40500   0.36750   0.82021   Biso      1.000     C          -0.105755           
         C29       1.0000    0.30760   0.45320   0.93709   Biso      1.000     C          -0.114106           
         C30       1.0000    0.20740   0.68550   0.94509   Biso      1.000     C          0.619911  
         C31       1.0000    0.68960   0.41110   0.17157   Biso      1.000     C          -0.096747           
         C32       1.0000    0.62590   0.51310   0.21319   Biso      1.000     C          -0.011334           
         Cu1       1.0000    0.86657   0.21767   0.90664   Biso      1.000     Cu          0.972765  
         Cu2       1.0000    0.63343   0.28233   0.40664   Biso      1.000     Cu          0.9716370000000001  
         Cu3       1.0000    0.04923   0.93435   0.93152   Biso      1.000     Cu          1.063417  
         Cu4       1.0000    0.45077   0.56565   0.43152   Biso      1.000     Cu          1.0632620000000002  
         Cu5       1.0000    0.13343   0.78233   0.09336   Biso      1.000     Cu          0.97262   
         Cu6       1.0000    0.95077   0.06565   0.06848   Biso      1.000     Cu          1.0634350000000001  
         Cu7       1.0000    0.36657   0.71767   0.59336   Biso      1.000     Cu          0.971983  
         Cu8       1.0000    0.54923   0.43435   0.56848   Biso      1.000     Cu          1.0632540000000001  
         H1        1.0000    0.28650   0.44140   0.98710   Biso      1.000     H          0.136     
         H2        1.0000    0.78920   0.16840   0.69420   Biso      1.000     H          0.137756  
         H3        1.0000    0.44900   0.29920   0.79310   Biso      1.000     H          0.13933800000000002           
         H4        1.0000    0.78650   0.94140   0.51290   Biso      1.000     H          0.136043  
         H5        1.0000    0.71080   0.33160   0.19420   Biso      1.000     H          0.13784100000000002           
         H6        1.0000    0.55100   0.70080   0.20690   Biso      1.000     H          0.139345  
         H7        1.0000    0.71350   0.55860   0.01290   Biso      1.000     H          0.13600399999999999           
         H8        1.0000    0.21080   0.83160   0.30580   Biso      1.000     H          0.137756  
         H9        1.0000    0.05100   0.20080   0.29310   Biso      1.000     H          0.139244  
         H10       1.0000    0.21350   0.05860   0.48710   Biso      1.000     H          0.136041  
         H11       1.0000    0.94900   0.79920   0.70690   Biso      1.000     H          0.139245  
         H12       1.0000    0.28920   0.66840   0.80580   Biso      1.000     H          0.13783800000000002           
         O1        1.0000    0.19920   0.79310   0.90967   Biso      1.000     O          -0.47467  
         O2        1.0000    0.45130   0.85760   0.09674   Biso      1.000     O          -0.579817           
         O3        1.0000    0.04660   0.08440   0.16771   Biso      1.000     O          -0.477738           
         O4        1.0000    0.13120   0.94523   0.03516   Biso      1.000     O          -0.639961           
         O5        1.0000    0.33900   0.83510   0.51109   Biso      1.000     O          -0.5589029999999999           
         O6        1.0000    0.11530   0.87380   0.18521   Biso      1.000     O          -0.5209520000000001           
         O7        1.0000    0.11280   0.29430   0.51284   Biso      1.000     O          -0.563096           
         O8        1.0000    0.36880   0.55477   0.53516   Biso      1.000     O          -0.639955           
         O9        1.0000    0.27780   0.38110   0.40586   Biso      1.000     O          -0.67562  
         O10       1.0000    0.95130   0.35760   0.40326   Biso      1.000     O          -0.580179           
         O11       1.0000    0.45340   0.41560   0.66771   Biso      1.000     O          -0.47809399999999996          
         O12       1.0000    0.16100   0.66490   0.01109   Biso      1.000     O          -0.558816           
         O13       1.0000    0.38470   0.62620   0.68521   Biso      1.000     O          -0.521261           
         O14       1.0000    0.38720   0.20570   0.01284   Biso      1.000     O          -0.562806           
         O15       1.0000    0.77780   0.88110   0.09414   Biso      1.000     O          -0.675298           
         O16       1.0000    0.30080   0.70690   0.40967   Biso      1.000     O          -0.474926           
         O17       1.0000    0.80080   0.20690   0.09033   Biso      1.000     O          -0.474679           
         O18       1.0000    0.88720   0.70570   0.48716   Biso      1.000     O          -0.563133           
         O19       1.0000    0.61530   0.37380   0.31479   Biso      1.000     O          -0.52118  
         O20       1.0000    0.22220   0.11890   0.90586   Biso      1.000     O          -0.675376           
         O21       1.0000    0.95340   0.91560   0.83229   Biso      1.000     O          -0.477732           
         O22       1.0000    0.86880   0.05477   0.96484   Biso      1.000     O          -0.639917           
         O23       1.0000    0.61280   0.79430   0.98716   Biso      1.000     O          -0.562786           
         O24       1.0000    0.88470   0.12620   0.81479   Biso      1.000     O          -0.520912           
         O25       1.0000    0.66100   0.16490   0.48891   Biso      1.000     O          -0.558815           
         O26       1.0000    0.72220   0.61890   0.59414   Biso      1.000     O          -0.6756810000000001           
         O27       1.0000    0.04870   0.64240   0.59674   Biso      1.000     O          -0.580259           
         O28       1.0000    0.54660   0.58440   0.33229   Biso      1.000     O          -0.47809300000000005          
         O29       1.0000    0.63120   0.44523   0.46484   Biso      1.000     O          -0.639879           
         O30       1.0000    0.83900   0.33510   0.98891   Biso      1.000     O          -0.558776           
         O31       1.0000    0.69920   0.29310   0.59033   Biso      1.000     O          -0.474925           
         O32       1.0000    0.54870   0.14240   0.90326   Biso      1.000     O          -0.579889           
         S1        1.0000    0.38458   0.19354   0.93386   Biso      1.000     S          1.2052969999999998  
         S2        1.0000    0.11542   0.30646   0.43386   Biso      1.000     S          1.20523   
         S3        1.0000    0.61542   0.80646   0.06614   Biso      1.000     S          1.205267  
         S4        1.0000    0.88458   0.69354   0.56614   Biso      1.000     S          1.20525 