
##########################################################################
#               Crystallographic Information Format file
#               Produced by PyCifRW module
#
#  This is a CIF file.  CIF has been adopted by the International
#  Union of Crystallography as the standard for data archiving and
#  transmission.
#
#  For information on this file format, follow the CIF links at
#  http://www.iucr.org
##########################################################################

data_image0

_cell_length_a                          7.3206
_cell_length_b                          10.1331
_cell_length_c                          18.2483
_cell_angle_alpha                       90
_cell_angle_beta                        90
_cell_angle_gamma                       94.681
_symmetry_space_group_name_H-M          'P 1'
_symmetry_int_tables_number             1
loop_
  _symmetry_equiv_pos_as_xyz
         'x, y, z' 
loop_
  _atom_site_label
  _atom_site_occupancy
  _atom_site_fract_x
  _atom_site_fract_y
  _atom_site_fract_z
  _atom_site_thermal_displace_type
  _atom_site_B_iso_or_equiv
  _atom_site_type_symbol
  _atom_site_charge
         C1        1.0000    0.28980   0.81250   0.44479   Biso      1.000     C          0.625729  
         C2        1.0000    0.71900   0.42430   0.09687   Biso      1.000     C          -0.004824           
         C3        1.0000    0.62870   0.64680   0.10478   Biso      1.000     C          -0.084939           
         C4        1.0000    0.71020   0.18750   0.55521   Biso      1.000     C          0.62572   
         C5        1.0000    0.81050   0.95510   0.56283   Biso      1.000     C          -0.112634           
         C6        1.0000    0.90730   0.86900   0.67998   Biso      1.000     C          -0.104578           
         C7        1.0000    0.90770   0.01090   0.79358   Biso      1.000     C          0.631515  
         C8        1.0000    0.87580   0.98800   0.71336   Biso      1.000     C          -0.011608           
         C9        1.0000    0.81270   0.08990   0.67168   Biso      1.000     C          -0.095508           
         C10       1.0000    0.78100   0.07570   0.59687   Biso      1.000     C          -0.004828           
         C11       1.0000    0.87130   0.85320   0.60478   Biso      1.000     C          -0.084943           
         C12       1.0000    0.59230   0.48910   0.29358   Biso      1.000     C          0.631521  
         C13       1.0000    0.59270   0.63100   0.17998   Biso      1.000     C          -0.104577           
         C14       1.0000    0.68950   0.54490   0.06283   Biso      1.000     C          -0.112638           
         C15       1.0000    0.78980   0.31250   0.05521   Biso      1.000     C          0.625717  
         C16       1.0000    0.12870   0.14680   0.39522   Biso      1.000     C          -0.084938           
         C17       1.0000    0.21900   0.92430   0.40313   Biso      1.000     C          -0.004826           
         C18       1.0000    0.18730   0.91010   0.32832   Biso      1.000     C          -0.095508           
         C19       1.0000    0.12420   0.01200   0.28664   Biso      1.000     C          -0.011603           
         C20       1.0000    0.09230   0.98910   0.20642   Biso      1.000     C          0.631499  
         C21       1.0000    0.09270   0.13100   0.32002   Biso      1.000     C          -0.104585           
         C22       1.0000    0.18950   0.04490   0.43717   Biso      1.000     C          -0.112635           
         C23       1.0000    0.37130   0.35320   0.89522   Biso      1.000     C          -0.084937           
         C24       1.0000    0.28100   0.57570   0.90313   Biso      1.000     C          -0.004826           
         C25       1.0000    0.31270   0.58990   0.82832   Biso      1.000     C          -0.095503           
         C26       1.0000    0.37580   0.48800   0.78664   Biso      1.000     C          -0.0116   
         C27       1.0000    0.40770   0.51090   0.70642   Biso      1.000     C          0.631501  
         C28       1.0000    0.40730   0.36900   0.82002   Biso      1.000     C          -0.104584           
         C29       1.0000    0.31050   0.45510   0.93717   Biso      1.000     C          -0.112636           
         C30       1.0000    0.21020   0.68750   0.94479   Biso      1.000     C          0.625729  
         C31       1.0000    0.68730   0.41010   0.17168   Biso      1.000     C          -0.095503           
         C32       1.0000    0.62420   0.51200   0.21336   Biso      1.000     C          -0.01161  
         Cu1       1.0000    0.86637   0.21741   0.90708   Biso      1.000     Cu          0.976523  
         Cu2       1.0000    0.63363   0.28259   0.40708   Biso      1.000     Cu          0.976491  
         Cu3       1.0000    0.05051   0.93517   0.93151   Biso      1.000     Cu          1.063385  
         Cu4       1.0000    0.44949   0.56483   0.43151   Biso      1.000     Cu          1.063383  
         Cu5       1.0000    0.13363   0.78259   0.09291   Biso      1.000     Cu          0.976588  
         Cu6       1.0000    0.94949   0.06483   0.06849   Biso      1.000     Cu          1.063403  
         Cu7       1.0000    0.36637   0.71741   0.59291   Biso      1.000     Cu          0.976567  
         Cu8       1.0000    0.55051   0.43517   0.56849   Biso      1.000     Cu          1.063392  
         H1        1.0000    0.28950   0.44360   0.98710   Biso      1.000     H          0.135733  
         H2        1.0000    0.79120   0.16940   0.69440   Biso      1.000     H          0.136098  
         H3        1.0000    0.45150   0.30060   0.79300   Biso      1.000     H          0.138242  
         H4        1.0000    0.78950   0.94360   0.51290   Biso      1.000     H          0.13573   
         H5        1.0000    0.70880   0.33060   0.19440   Biso      1.000     H          0.136098  
         H6        1.0000    0.54850   0.69940   0.20700   Biso      1.000     H          0.138242  
         H7        1.0000    0.71050   0.55640   0.01290   Biso      1.000     H          0.13573   
         H8        1.0000    0.20880   0.83060   0.30560   Biso      1.000     H          0.1361    
         H9        1.0000    0.04850   0.19940   0.29300   Biso      1.000     H          0.138243  
         H10       1.0000    0.21050   0.05640   0.48710   Biso      1.000     H          0.135731  
         H11       1.0000    0.95150   0.80060   0.70700   Biso      1.000     H          0.138245  
         H12       1.0000    0.29120   0.66940   0.80560   Biso      1.000     H          0.136101  
         O1        1.0000    0.20210   0.79460   0.90956   Biso      1.000     O          -0.474613           
         O2        1.0000    0.45120   0.85730   0.09723   Biso      1.000     O          -0.581997           
         O3        1.0000    0.04570   0.08400   0.16777   Biso      1.000     O          -0.476395           
         O4        1.0000    0.13190   0.94600   0.03517   Biso      1.000     O          -0.638599           
         O5        1.0000    0.33780   0.83360   0.51029   Biso      1.000     O          -0.562604           
         O6        1.0000    0.11560   0.87340   0.18494   Biso      1.000     O          -0.521475           
         O7        1.0000    0.10980   0.29270   0.51258   Biso      1.000     O          -0.564597           
         O8        1.0000    0.36810   0.55400   0.53517   Biso      1.000     O          -0.638607           
         O9        1.0000    0.28020   0.37910   0.40655   Biso      1.000     O          -0.680744           
         O10       1.0000    0.95120   0.35730   0.40277   Biso      1.000     O          -0.58201  
         O11       1.0000    0.45430   0.41600   0.66777   Biso      1.000     O          -0.47639  
         O12       1.0000    0.16220   0.66640   0.01029   Biso      1.000     O          -0.562611           
         O13       1.0000    0.38440   0.62660   0.68494   Biso      1.000     O          -0.521469           
         O14       1.0000    0.39020   0.20730   0.01258   Biso      1.000     O          -0.564601           
         O15       1.0000    0.78020   0.87910   0.09345   Biso      1.000     O          -0.680768           
         O16       1.0000    0.29790   0.70540   0.40956   Biso      1.000     O          -0.474613           
         O17       1.0000    0.79790   0.20540   0.09044   Biso      1.000     O          -0.474613           
         O18       1.0000    0.89020   0.70730   0.48742   Biso      1.000     O          -0.564606           
         O19       1.0000    0.61560   0.37340   0.31506   Biso      1.000     O          -0.52149  
         O20       1.0000    0.21980   0.12090   0.90655   Biso      1.000     O          -0.680747           
         O21       1.0000    0.95430   0.91600   0.83223   Biso      1.000     O          -0.476394           
         O22       1.0000    0.86810   0.05400   0.96483   Biso      1.000     O          -0.638528           
         O23       1.0000    0.60980   0.79270   0.98742   Biso      1.000     O          -0.564614           
         O24       1.0000    0.88440   0.12660   0.81506   Biso      1.000     O          -0.521485           
         O25       1.0000    0.66220   0.16640   0.48971   Biso      1.000     O          -0.562602           
         O26       1.0000    0.71980   0.62090   0.59345   Biso      1.000     O          -0.680762           
         O27       1.0000    0.04880   0.64270   0.59723   Biso      1.000     O          -0.581984           
         O28       1.0000    0.54570   0.58400   0.33223   Biso      1.000     O          -0.476402           
         O29       1.0000    0.63190   0.44600   0.46483   Biso      1.000     O          -0.638487           
         O30       1.0000    0.83780   0.33360   0.98971   Biso      1.000     O          -0.5626   
         O31       1.0000    0.70210   0.29460   0.59044   Biso      1.000     O          -0.474619           
         O32       1.0000    0.54880   0.14270   0.90277   Biso      1.000     O          -0.58201  
         S1        1.0000    0.38547   0.19499   0.93372   Biso      1.000     S          1.207864  
         S2        1.0000    0.11453   0.30501   0.43372   Biso      1.000     S          1.207866  
         S3        1.0000    0.61453   0.80501   0.06628   Biso      1.000     S          1.207864  
         S4        1.0000    0.88547   0.69499   0.56628   Biso      1.000     S          1.207854 