
##########################################################################
#               Crystallographic Information Format file
#               Produced by PyCifRW module
#
#  This is a CIF file.  CIF has been adopted by the International
#  Union of Crystallography as the standard for data archiving and
#  transmission.
#
#  For information on this file format, follow the CIF links at
#  http://www.iucr.org
##########################################################################

data_image0

_cell_length_a                          7.2949
_cell_length_b                          10.1245
_cell_length_c                          18.2726
_cell_angle_alpha                       90
_cell_angle_beta                        90
_cell_angle_gamma                       94.891
_symmetry_space_group_name_H-M          'P 1'
_symmetry_int_tables_number             1
loop_
  _symmetry_equiv_pos_as_xyz
         'x, y, z' 
loop_
  _atom_site_label
  _atom_site_occupancy
  _atom_site_fract_x
  _atom_site_fract_y
  _atom_site_fract_z
  _atom_site_thermal_displace_type
  _atom_site_B_iso_or_equiv
  _atom_site_type_symbol
  _atom_site_charge
         C1        1.0000    0.28730   0.81120   0.44445   Biso      1.000     C          0.619946  
         C2        1.0000    0.71690   0.42300   0.09757   Biso      1.000     C          -0.000743           
         C3        1.0000    0.62600   0.64450   0.10489   Biso      1.000     C          -0.081736           
         C4        1.0000    0.71270   0.18880   0.55555   Biso      1.000     C          0.619943  
         C5        1.0000    0.81220   0.95700   0.56311   Biso      1.000     C          -0.113252           
         C6        1.0000    0.90880   0.87000   0.67996   Biso      1.000     C          -0.106968           
         C7        1.0000    0.90830   0.01170   0.79368   Biso      1.000     C          0.627479  
         C8        1.0000    0.87760   0.98910   0.71358   Biso      1.000     C          -0.01059  
         C9        1.0000    0.81400   0.09160   0.67221   Biso      1.000     C          -0.096081           
         C10       1.0000    0.78310   0.07700   0.59757   Biso      1.000     C          -0.000725           
         C11       1.0000    0.87400   0.85550   0.60489   Biso      1.000     C          -0.081708           
         C12       1.0000    0.59170   0.48830   0.29368   Biso      1.000     C          0.627462  
         C13       1.0000    0.59120   0.63000   0.17996   Biso      1.000     C          -0.106962           
         C14       1.0000    0.68780   0.54300   0.06311   Biso      1.000     C          -0.113294           
         C15       1.0000    0.78730   0.31120   0.05555   Biso      1.000     C          0.619944  
         C16       1.0000    0.12600   0.14450   0.39511   Biso      1.000     C          -0.081698           
         C17       1.0000    0.21690   0.92300   0.40243   Biso      1.000     C          -0.000722           
         C18       1.0000    0.18600   0.90840   0.32779   Biso      1.000     C          -0.096078           
         C19       1.0000    0.12240   0.01090   0.28642   Biso      1.000     C          -0.010592           
         C20       1.0000    0.09170   0.98830   0.20632   Biso      1.000     C          0.627482  
         C21       1.0000    0.09120   0.13000   0.32004   Biso      1.000     C          -0.106957           
         C22       1.0000    0.18780   0.04300   0.43689   Biso      1.000     C          -0.113246           
         C23       1.0000    0.37400   0.35550   0.89511   Biso      1.000     C          -0.081727           
         C24       1.0000    0.28310   0.57700   0.90243   Biso      1.000     C          -0.000738           
         C25       1.0000    0.31400   0.59160   0.82779   Biso      1.000     C          -0.096058           
         C26       1.0000    0.37760   0.48910   0.78642   Biso      1.000     C          -0.010543           
         C27       1.0000    0.40830   0.51170   0.70632   Biso      1.000     C          0.627465  
         C28       1.0000    0.40880   0.37000   0.82004   Biso      1.000     C          -0.106953           
         C29       1.0000    0.31220   0.45700   0.93689   Biso      1.000     C          -0.113287           
         C30       1.0000    0.21270   0.68880   0.94445   Biso      1.000     C          0.619947  
         C31       1.0000    0.68600   0.40840   0.17221   Biso      1.000     C          -0.096065           
         C32       1.0000    0.62240   0.51090   0.21358   Biso      1.000     C          -0.010546           
         Cu1       1.0000    0.86633   0.21714   0.90752   Biso      1.000     Cu          0.976887  
         Cu2       1.0000    0.63367   0.28286   0.40752   Biso      1.000     Cu          0.976819  
         Cu3       1.0000    0.05141   0.93577   0.93149   Biso      1.000     Cu          1.063616  
         Cu4       1.0000    0.44859   0.56423   0.43149   Biso      1.000     Cu          1.063642  
         Cu5       1.0000    0.13367   0.78286   0.09248   Biso      1.000     Cu          0.976914  
         Cu6       1.0000    0.94859   0.06423   0.06851   Biso      1.000     Cu          1.063613  
         Cu7       1.0000    0.36633   0.71714   0.59248   Biso      1.000     Cu          0.976858  
         Cu8       1.0000    0.55141   0.43577   0.56851   Biso      1.000     Cu          1.063628  
         H1        1.0000    0.29050   0.44570   0.98670   Biso      1.000     H          0.136471  
         H2        1.0000    0.79210   0.17090   0.69500   Biso      1.000     H          0.137803  
         H3        1.0000    0.45200   0.30100   0.79320   Biso      1.000     H          0.139431  
         H4        1.0000    0.79050   0.94570   0.51330   Biso      1.000     H          0.136474  
         H5        1.0000    0.70790   0.32910   0.19500   Biso      1.000     H          0.137816  
         H6        1.0000    0.54800   0.69900   0.20680   Biso      1.000     H          0.139426  
         H7        1.0000    0.70950   0.55430   0.01330   Biso      1.000     H          0.136467  
         H8        1.0000    0.20790   0.82910   0.30500   Biso      1.000     H          0.137806  
         H9        1.0000    0.04800   0.19900   0.29320   Biso      1.000     H          0.139411  
         H10       1.0000    0.20950   0.05430   0.48670   Biso      1.000     H          0.136478  
         H11       1.0000    0.95200   0.80100   0.70680   Biso      1.000     H          0.139409  
         H12       1.0000    0.29210   0.67090   0.80500   Biso      1.000     H          0.13782   
         O1        1.0000    0.20500   0.79678   0.90928   Biso      1.000     O          -0.473586           
         O2        1.0000    0.45190   0.85716   0.09805   Biso      1.000     O          -0.583274           
         O3        1.0000    0.04440   0.08361   0.16769   Biso      1.000     O          -0.475915           
         O4        1.0000    0.13300   0.94713   0.03499   Biso      1.000     O          -0.635221           
         O5        1.0000    0.33690   0.83278   0.50975   Biso      1.000     O          -0.560904           
         O6        1.0000    0.11580   0.87281   0.18455   Biso      1.000     O          -0.519281           
         O7        1.0000    0.10790   0.29139   0.51246   Biso      1.000     O          -0.565258           
         O8        1.0000    0.36700   0.55287   0.53499   Biso      1.000     O          -0.635252           
         O9        1.0000    0.28270   0.37672   0.40706   Biso      1.000     O          -0.684963           
         O10       1.0000    0.95190   0.35716   0.40195   Biso      1.000     O          -0.583317           
         O11       1.0000    0.45560   0.41639   0.66769   Biso      1.000     O          -0.475975           
         O12       1.0000    0.16310   0.66722   0.00975   Biso      1.000     O          -0.560866           
         O13       1.0000    0.38420   0.62719   0.68455   Biso      1.000     O          -0.519351           
         O14       1.0000    0.39210   0.20861   0.01246   Biso      1.000     O          -0.565212           
         O15       1.0000    0.78270   0.87672   0.09294   Biso      1.000     O          -0.684936           
         O16       1.0000    0.29500   0.70322   0.40928   Biso      1.000     O          -0.473632           
         O17       1.0000    0.79500   0.20322   0.09072   Biso      1.000     O          -0.473583           
         O18       1.0000    0.89210   0.70861   0.48754   Biso      1.000     O          -0.565255           
         O19       1.0000    0.61580   0.37281   0.31545   Biso      1.000     O          -0.519368           
         O20       1.0000    0.21730   0.12328   0.90706   Biso      1.000     O          -0.68491  
         O21       1.0000    0.95560   0.91639   0.83231   Biso      1.000     O          -0.47592  
         O22       1.0000    0.86700   0.05287   0.96501   Biso      1.000     O          -0.635231           
         O23       1.0000    0.60790   0.79139   0.98754   Biso      1.000     O          -0.565218           
         O24       1.0000    0.88420   0.12719   0.81545   Biso      1.000     O          -0.51931  
         O25       1.0000    0.66310   0.16722   0.49025   Biso      1.000     O          -0.560923           
         O26       1.0000    0.71730   0.62328   0.59294   Biso      1.000     O          -0.684979           
         O27       1.0000    0.04810   0.64284   0.59805   Biso      1.000     O          -0.583326           
         O28       1.0000    0.54440   0.58361   0.33231   Biso      1.000     O          -0.475975           
         O29       1.0000    0.63300   0.44713   0.46501   Biso      1.000     O          -0.635279           
         O30       1.0000    0.83690   0.33278   0.99025   Biso      1.000     O          -0.560896           
         O31       1.0000    0.70500   0.29678   0.59072   Biso      1.000     O          -0.473626           
         O32       1.0000    0.54810   0.14284   0.90195   Biso      1.000     O          -0.583259           
         S1        1.0000    0.38602   0.19624   0.93351   Biso      1.000     S          1.206201  
         S2        1.0000    0.11398   0.30376   0.43351   Biso      1.000     S          1.206197  
         S3        1.0000    0.61398   0.80376   0.06649   Biso      1.000     S          1.20621   
         S4        1.0000    0.88602   0.69624   0.56649   Biso      1.000     S          1.206201 