
##########################################################################
#               Crystallographic Information Format file
#               Produced by PyCifRW module
#
#  This is a CIF file.  CIF has been adopted by the International
#  Union of Crystallography as the standard for data archiving and
#  transmission.
#
#  For information on this file format, follow the CIF links at
#  http://www.iucr.org
##########################################################################

data_image0

_cell_length_a                          7.3336
_cell_length_b                          10.1252
_cell_length_c                          18.1829
_cell_angle_alpha                       90
_cell_angle_beta                        90
_cell_angle_gamma                       94.493
_symmetry_space_group_name_H-M          'P 1'
_symmetry_int_tables_number             1
loop_
  _symmetry_equiv_pos_as_xyz
         'x, y, z' 
loop_
  _atom_site_label
  _atom_site_occupancy
  _atom_site_fract_x
  _atom_site_fract_y
  _atom_site_fract_z
  _atom_site_thermal_displace_type
  _atom_site_B_iso_or_equiv
  _atom_site_type_symbol
  _atom_site_charge
         C1        1.0000    0.09800   0.13270   0.32050   Biso      1.000     C          -0.10503399999999999          
         C2        1.0000    0.90200   0.86730   0.67950   Biso      1.000     C          -0.104853           
         C3        1.0000    0.86740   0.85070   0.60490   Biso      1.000     C          -0.082902           
         C4        1.0000    0.80440   0.95150   0.56290   Biso      1.000     C          -0.118408           
         C5        1.0000    0.77590   0.07210   0.59630   Biso      1.000     C          -0.004155           
         C6        1.0000    0.80810   0.08790   0.67110   Biso      1.000     C          -0.096167           
         C7        1.0000    0.87250   0.98590   0.71300   Biso      1.000     C          -0.013522           
         C8        1.0000    0.62750   0.51410   0.21300   Biso      1.000     C          -0.012669           
         C9        1.0000    0.69190   0.41210   0.17110   Biso      1.000     C          -0.09736900000000001          
         C10       1.0000    0.72410   0.42790   0.09630   Biso      1.000     C          -0.004323           
         C11       1.0000    0.69560   0.54850   0.06290   Biso      1.000     C          -0.11759700000000001          
         C12       1.0000    0.63260   0.64930   0.10490   Biso      1.000     C          -0.081675           
         C13       1.0000    0.59800   0.63270   0.17950   Biso      1.000     C          -0.103308           
         C14       1.0000    0.59380   0.48940   0.29290   Biso      1.000     C          0.638551  
         C15       1.0000    0.79570   0.31740   0.05470   Biso      1.000     C          0.627218  
         C16       1.0000    0.12750   0.01410   0.28700   Biso      1.000     C          -0.012287000000000001         
         C17       1.0000    0.19190   0.91210   0.32890   Biso      1.000     C          -0.096171           
         C18       1.0000    0.22410   0.92790   0.40370   Biso      1.000     C          -0.004222           
         C19       1.0000    0.19560   0.04850   0.43710   Biso      1.000     C          -0.118531           
         C20       1.0000    0.13260   0.14930   0.39510   Biso      1.000     C          -0.082839           
         C21       1.0000    0.09380   0.98940   0.20710   Biso      1.000     C          0.636888  
         C22       1.0000    0.29570   0.81740   0.44530   Biso      1.000     C          0.62817   
         C23       1.0000    0.37250   0.48590   0.78700   Biso      1.000     C          -0.012922           
         C24       1.0000    0.30810   0.58790   0.82890   Biso      1.000     C          -0.09758700000000001          
         C25       1.0000    0.27590   0.57210   0.90370   Biso      1.000     C          -0.005439           
         C26       1.0000    0.30440   0.45150   0.93710   Biso      1.000     C          -0.117791           
         C27       1.0000    0.36740   0.35070   0.89510   Biso      1.000     C          -0.082883           
         C28       1.0000    0.40200   0.36730   0.82050   Biso      1.000     C          -0.10419500000000001          
         C29       1.0000    0.40620   0.51060   0.70710   Biso      1.000     C          0.638571  
         C30       1.0000    0.20430   0.68260   0.94530   Biso      1.000     C          0.626761  
         C31       1.0000    0.90620   0.01060   0.79290   Biso      1.000     C          0.637265  
         C32       1.0000    0.70430   0.18260   0.55470   Biso      1.000     C          0.62807   
         Cu1       1.0000    0.86677   0.21792   0.90624   Biso      1.000     Cu          1.003841  
         Cu2       1.0000    0.13323   0.78208   0.09376   Biso      1.000     Cu          0.9931690000000001  
         Cu3       1.0000    0.04748   0.93336   0.93158   Biso      1.000     Cu          1.0740180000000001  
         Cu4       1.0000    0.63323   0.28208   0.40624   Biso      1.000     Cu          1.012642  
         Cu5       1.0000    0.45252   0.56664   0.43158   Biso      1.000     Cu          1.0847950000000002  
         Cu6       1.0000    0.95252   0.06664   0.06842   Biso      1.000     Cu          1.074227  
         Cu7       1.0000    0.36677   0.71792   0.59376   Biso      1.000     Cu          1.013264  
         Cu8       1.0000    0.54748   0.43336   0.56842   Biso      1.000     Cu          1.084516  
         H1        1.0000    0.44510   0.29860   0.79320   Biso      1.000     H          0.137516  
         H2        1.0000    0.77000   0.02100   0.96400   Biso      1.000     H          0.45912600000000003           
         H3        1.0000    0.78640   0.16760   0.69360   Biso      1.000     H          0.137204  
         H4        1.0000    0.78130   0.93900   0.51300   Biso      1.000     H          0.133819  
         H5        1.0000    0.28130   0.43900   0.98700   Biso      1.000     H          0.133672  
         H6        1.0000    0.05490   0.20140   0.29320   Biso      1.000     H          0.13758099999999998           
         H7        1.0000    0.73000   0.47900   0.46400   Biso      1.000     H          0.45962600000000003           
         H8        1.0000    0.71360   0.33240   0.19360   Biso      1.000     H          0.136803  
         H9        1.0000    0.71870   0.56100   0.01300   Biso      1.000     H          0.133801  
         H10       1.0000    0.55490   0.70140   0.20680   Biso      1.000     H          0.137711  
         H11       1.0000    0.23000   0.97900   0.03600   Biso      1.000     H          0.458466  
         H12       1.0000    0.21360   0.83240   0.30640   Biso      1.000     H          0.137405  
         H13       1.0000    0.21870   0.06100   0.48700   Biso      1.000     H          0.13375599999999999           
         H14       1.0000    0.28640   0.66760   0.80640   Biso      1.000     H          0.136624  
         H15       1.0000    0.27000   0.52100   0.53600   Biso      1.000     H          0.45971599999999996           
         H16       1.0000    0.94510   0.79860   0.70680   Biso      1.000     H          0.137542  
         O1        1.0000    0.94930   0.35640   0.40467   Biso      1.000     O          -0.64094  
         O2        1.0000    0.30610   0.71010   0.40980   Biso      1.000     O          -0.52571  
         O3        1.0000    0.34080   0.83680   0.51144   Biso      1.000     O          -0.572126           
         O4        1.0000    0.22540   0.11560   0.90470   Biso      1.000     O          -0.693018           
         O5        1.0000    0.11550   0.87490   0.18544   Biso      1.000     O          -0.5342439999999999           
         O6        1.0000    0.62840   0.44340   0.46515   Biso      1.000     O          -0.940318           
         O7        1.0000    0.04750   0.08450   0.16812   Biso      1.000     O          -0.519071           
         O8        1.0000    0.27460   0.38440   0.40470   Biso      1.000     O          -0.690238           
         O9        1.0000    0.15920   0.66320   0.01144   Biso      1.000     O          -0.5724640000000001           
         O10       1.0000    0.12840   0.94340   0.03485   Biso      1.000     O          -0.921858           
         O11       1.0000    0.38450   0.62510   0.68544   Biso      1.000     O          -0.5362210000000001           
         O12       1.0000    0.45250   0.41550   0.66812   Biso      1.000     O          -0.5260600000000001           
         O13       1.0000    0.19390   0.78990   0.90980   Biso      1.000     O          -0.518545           
         O14       1.0000    0.55070   0.14360   0.90467   Biso      1.000     O          -0.6433979999999999           
         O15       1.0000    0.61790   0.79630   0.98713   Biso      1.000     O          -0.6007140000000001           
         O16       1.0000    0.11790   0.29630   0.51287   Biso      1.000     O          -0.5995060000000001           
         O17       1.0000    0.77460   0.88440   0.09530   Biso      1.000     O          -0.691369           
         O18       1.0000    0.65920   0.16320   0.48856   Biso      1.000     O          -0.5719420000000001           
         O19       1.0000    0.80610   0.21010   0.09020   Biso      1.000     O          -0.519044           
         O20       1.0000    0.38210   0.20370   0.01287   Biso      1.000     O          -0.600761           
         O21       1.0000    0.88450   0.12510   0.81456   Biso      1.000     O          -0.534833           
         O22       1.0000    0.95250   0.91550   0.83188   Biso      1.000     O          -0.516537           
         O23       1.0000    0.44930   0.85640   0.09533   Biso      1.000     O          -0.64264  
         O24       1.0000    0.05070   0.64360   0.59533   Biso      1.000     O          -0.641103           
         O25       1.0000    0.69390   0.28990   0.59020   Biso      1.000     O          -0.5258619999999999           
         O26       1.0000    0.88210   0.70370   0.48713   Biso      1.000     O          -0.59941  
         O27       1.0000    0.87160   0.05660   0.96515   Biso      1.000     O          -0.9253110000000001           
         O28       1.0000    0.61550   0.37490   0.31456   Biso      1.000     O          -0.536361           
         O29       1.0000    0.54750   0.58450   0.33188   Biso      1.000     O          -0.5260739999999999           
         O30       1.0000    0.84080   0.33680   0.98856   Biso      1.000     O          -0.570171           
         O31       1.0000    0.72540   0.61560   0.59530   Biso      1.000     O          -0.690465           
         O32       1.0000    0.37160   0.55660   0.53485   Biso      1.000     O          -0.9402510000000001           
         S1        1.0000    0.38384   0.19198   0.93399   Biso      1.000     S          1.218132  
         S2        1.0000    0.11616   0.30802   0.43399   Biso      1.000     S          1.217597  
         S3        1.0000    0.61616   0.80802   0.06601   Biso      1.000     S          1.217737  
         S4        1.0000    0.88384   0.69198   0.56601   Biso      1.000     S          1.2176120000000001 