
##########################################################################
#               Crystallographic Information Format file
#               Produced by PyCifRW module
#
#  This is a CIF file.  CIF has been adopted by the International
#  Union of Crystallography as the standard for data archiving and
#  transmission.
#
#  For information on this file format, follow the CIF links at
#  http://www.iucr.org
##########################################################################

data_image0

_cell_length_a                          10.3855
_cell_length_b                          12.3175
_cell_length_c                          12.3175
_cell_angle_alpha                       79.7628
_cell_angle_beta                        65.066
_cell_angle_gamma                       65.0661
_symmetry_space_group_name_H-M          'P 1'
_symmetry_int_tables_number             1
loop_
  _symmetry_equiv_pos_as_xyz
         'x, y, z' 
loop_
  _atom_site_label
  _atom_site_occupancy
  _atom_site_fract_x
  _atom_site_fract_y
  _atom_site_fract_z
  _atom_site_thermal_displace_type
  _atom_site_B_iso_or_equiv
  _atom_site_type_symbol
  _atom_site_charge
         C1        1.0000    0.44910   0.24050   0.63954   Biso      1.000     C          0.092296  
         C2        1.0000    0.36130   0.38895   0.11927   Biso      1.000     C          -0.140989           
         C3        1.0000    0.31040   0.36046   0.24050   Biso      1.000     C          0.09201799999999999           
         C4        1.0000    0.55090   0.75950   0.36046   Biso      1.000     C          0.092296  
         C5        1.0000    0.48057   0.88073   0.38895   Biso      1.000     C          -0.13933900000000002          
         C6        1.0000    0.67086   0.24050   0.63954   Biso      1.000     C          0.089745  
         C7        1.0000    0.75025   0.11927   0.61105   Biso      1.000     C          -0.137072           
         C8        1.0000    0.68960   0.63954   0.75950   Biso      1.000     C          0.092017  
         C9        1.0000    0.63870   0.61105   0.88073   Biso      1.000     C          -0.140989           
         C10       1.0000    0.08864   0.36046   0.24050   Biso      1.000     C          0.088277  
         C11       1.0000    0.13048   0.38895   0.11927   Biso      1.000     C          -0.136748           
         C12       1.0000    0.51943   0.11927   0.61105   Biso      1.000     C          -0.13933900000000002          
         C13       1.0000    0.32914   0.75950   0.36046   Biso      1.000     C          0.089745  
         C14       1.0000    0.24975   0.88073   0.38895   Biso      1.000     C          -0.137072           
         C15       1.0000    0.26918   0.40387   0.05777   Biso      1.000     C          0.030458999999999996          
         C16       1.0000    0.31657   0.43941   0.92745   Biso      1.000     C          0.5530619999999999  
         C17       1.0000    0.73082   0.59613   0.94223   Biso      1.000     C          0.030456999999999998          
         C18       1.0000    0.68343   0.56059   0.07255   Biso      1.000     C          0.5530619999999999  
         C19       1.0000    0.32695   0.94223   0.40387   Biso      1.000     C          0.029325  
         C20       1.0000    0.24402   0.07255   0.43941   Biso      1.000     C          0.552709  
         C21       1.0000    0.67305   0.05777   0.59613   Biso      1.000     C          0.029325  
         C22       1.0000    0.75598   0.92745   0.56059   Biso      1.000     C          0.552709  
         C23       1.0000    0.91136   0.63954   0.75950   Biso      1.000     C          0.088277  
         C24       1.0000    0.86952   0.61105   0.88073   Biso      1.000     C          -0.136746           
         Cd1       1.0000    0.09636   0.30250   0.50479   Biso      1.000     Cd          1.003427  
         Cd2       1.0000    0.90364   0.69750   0.49521   Biso      1.000     Cd          1.003427  
         Cd3       1.0000    0.60114   0.49521   0.30251   Biso      1.000     Cd          1.003121  
         Cd4       1.0000    0.39886   0.50479   0.69749   Biso      1.000     Cd          1.003121  
         H1        1.0000    0.27650   0.71760   0.35000   Biso      1.000     H          0.09503099999999999           
         H2        1.0000    0.14510   0.92060   0.39800   Biso      1.000     H          0.135679  
         H3        1.0000    0.45690   0.39800   0.07940   Biso      1.000     H          0.138141  
         H4        1.0000    0.00590   0.65000   0.71760   Biso      1.000     H          0.096511  
         H5        1.0000    0.93430   0.60200   0.92060   Biso      1.000     H          0.135475  
         H6        1.0000    0.65590   0.71760   0.35000   Biso      1.000     H          0.093597  
         H7        1.0000    0.53630   0.92060   0.39800   Biso      1.000     H          0.137269  
         H8        1.0000    0.37350   0.35000   0.28240   Biso      1.000     H          0.09585   
         H9        1.0000    0.85490   0.07940   0.60200   Biso      1.000     H          0.135679  
         H10       1.0000    0.72350   0.28240   0.65000   Biso      1.000     H          0.09503099999999999           
         H11       1.0000    0.34410   0.28240   0.65000   Biso      1.000     H          0.093597  
         H12       1.0000    0.06570   0.39800   0.07940   Biso      1.000     H          0.135475  
         H13       1.0000    0.99410   0.35000   0.28240   Biso      1.000     H          0.096511  
         H14       1.0000    0.46370   0.07940   0.60200   Biso      1.000     H          0.137269  
         H15       1.0000    0.54310   0.60200   0.92060   Biso      1.000     H          0.138141  
         H16       1.0000    0.62650   0.65000   0.71760   Biso      1.000     H          0.09585   
         N1        1.0000    0.17600   0.34708   0.30092   Biso      1.000     N          -0.259658           
         N2        1.0000    0.82400   0.65292   0.69908   Biso      1.000     N          -0.259658           
         N3        1.0000    0.47692   0.69908   0.34708   Biso      1.000     N          -0.257337           
         N4        1.0000    0.52308   0.30092   0.65292   Biso      1.000     N          -0.257337           
         O1        1.0000    0.68185   0.87632   0.54566   Biso      1.000     O          -0.550128           
         O2        1.0000    0.59168   0.56680   0.58454   Biso      1.000     O          -0.6625260000000001           
         O3        1.0000    0.17622   0.41546   0.56680   Biso      1.000     O          -0.663514           
         O4        1.0000    0.22751   0.45434   0.87632   Biso      1.000     O          -0.551596           
         O5        1.0000    0.15848   0.58454   0.43320   Biso      1.000     O          -0.662996           
         O6        1.0000    0.55817   0.54566   0.12368   Biso      1.000     O          -0.548864           
         O7        1.0000    0.25698   0.56680   0.58454   Biso      1.000     O          -0.663733           
         O8        1.0000    0.89617   0.87632   0.54566   Biso      1.000     O          -0.5496449999999999           
         O9        1.0000    0.74302   0.43320   0.41546   Biso      1.000     O          -0.663733           
         O10       1.0000    0.31815   0.12368   0.45434   Biso      1.000     O          -0.550128           
         O11       1.0000    0.82378   0.58454   0.43320   Biso      1.000     O          -0.663514           
         O12       1.0000    0.77249   0.54566   0.12368   Biso      1.000     O          -0.551596           
         O13       1.0000    0.84152   0.41546   0.56680   Biso      1.000     O          -0.662996           
         O14       1.0000    0.44183   0.45434   0.87632   Biso      1.000     O          -0.548864           
         O15       1.0000    0.10383   0.12368   0.45434   Biso      1.000     O          -0.5496449999999999           
         O16       1.0000    0.40832   0.43320   0.41546   Biso      1.000     O          -0.6625260000000001           
         S1        1.0000    0.75000   0.50000   0.50000   Biso      1.000     S          1.4621549999999999  
         S2        1.0000    0.25000   0.50000   0.50000   Biso      1.000     S          1.4621549999999999 