
##########################################################################
#               Crystallographic Information Format file
#               Produced by PyCifRW module
#
#  This is a CIF file.  CIF has been adopted by the International
#  Union of Crystallography as the standard for data archiving and
#  transmission.
#
#  For information on this file format, follow the CIF links at
#  http://www.iucr.org
##########################################################################

data_image0

_cell_length_a                          9.8383
_cell_length_b                          13.1984
_cell_length_c                          11.3829
_cell_angle_alpha                       90
_cell_angle_beta                        101.437
_cell_angle_gamma                       90
_symmetry_space_group_name_H-M          'P 1'
_symmetry_int_tables_number             1
loop_
  _symmetry_equiv_pos_as_xyz
         'x, y, z' 
loop_
  _atom_site_label
  _atom_site_occupancy
  _atom_site_fract_x
  _atom_site_fract_y
  _atom_site_fract_z
  _atom_site_thermal_displace_type
  _atom_site_B_iso_or_equiv
  _atom_site_type_symbol
  _atom_site_charge
         C1        1.0000    0.53700   0.61240   0.14960   Biso      1.000     C          0.5726899999999999  
         C2        1.0000    0.39730   0.38080   0.23260   Biso      1.000     C          0.09813   
         C3        1.0000    0.35160   0.18840   0.14890   Biso      1.000     C          -0.165372           
         C4        1.0000    0.01120   0.24750   0.71900   Biso      1.000     C          -0.158797           
         C5        1.0000    0.91880   0.30800   0.76570   Biso      1.000     C          0.024224000000000002          
         C6        1.0000    0.97060   0.39480   0.84970   Biso      1.000     C          0.595477  
         C7        1.0000    0.46300   0.38760   0.85040   Biso      1.000     C          0.5726899999999999  
         C8        1.0000    0.41790   0.29770   0.76840   Biso      1.000     C          0.040825  
         C9        1.0000    0.44160   0.19940   0.80980   Biso      1.000     C          -0.167889           
         C10       1.0000    0.44160   0.30060   0.30980   Biso      1.000     C          -0.167891           
         C11       1.0000    0.35160   0.31160   0.64890   Biso      1.000     C          -0.165372           
         C12       1.0000    0.41790   0.20230   0.26840   Biso      1.000     C          0.040826  
         C13       1.0000    0.39730   0.11920   0.73260   Biso      1.000     C          0.098129  
         C14       1.0000    0.46300   0.11240   0.35040   Biso      1.000     C          0.5726899999999999  
         C15       1.0000    0.31310   0.22780   0.57760   Biso      1.000     C          0.084521  
         C16       1.0000    0.60270   0.88080   0.26740   Biso      1.000     C          0.098131  
         C17       1.0000    0.58210   0.70230   0.23160   Biso      1.000     C          0.040825  
         C18       1.0000    0.68690   0.77220   0.42240   Biso      1.000     C          0.08451900000000001           
         C19       1.0000    0.02940   0.60520   0.15030   Biso      1.000     C          0.595474  
         C20       1.0000    0.08120   0.69200   0.23430   Biso      1.000     C          0.024222999999999998          
         C21       1.0000    0.98880   0.75250   0.28100   Biso      1.000     C          -0.15879200000000002          
         C22       1.0000    0.22140   0.71440   0.26530   Biso      1.000     C          -0.161435           
         C23       1.0000    0.31310   0.27220   0.07760   Biso      1.000     C          0.084521  
         C24       1.0000    0.26340   0.79670   0.33810   Biso      1.000     C          0.087027  
         C25       1.0000    0.73660   0.29670   0.16190   Biso      1.000     C          0.087023  
         C26       1.0000    0.96030   0.33270   0.14520   Biso      1.000     C          0.085837  
         C27       1.0000    0.73660   0.20330   0.66190   Biso      1.000     C          0.087024  
         C28       1.0000    0.96030   0.16730   0.64520   Biso      1.000     C          0.08584299999999999           
         C29       1.0000    0.53700   0.88760   0.64960   Biso      1.000     C          0.5726899999999999  
         C30       1.0000    0.58210   0.79770   0.73160   Biso      1.000     C          0.040825  
         C31       1.0000    0.55840   0.69940   0.69020   Biso      1.000     C          -0.167889           
         C32       1.0000    0.55840   0.80060   0.19020   Biso      1.000     C          -0.167891           
         C33       1.0000    0.64840   0.81160   0.85110   Biso      1.000     C          -0.165373           
         C34       1.0000    0.26340   0.70330   0.83810   Biso      1.000     C          0.087024  
         C35       1.0000    0.64840   0.68840   0.35110   Biso      1.000     C          -0.16537000000000002          
         C36       1.0000    0.03970   0.66730   0.85480   Biso      1.000     C          0.085838  
         C37       1.0000    0.60270   0.61920   0.76740   Biso      1.000     C          0.098129  
         C38       1.0000    0.22140   0.78560   0.76530   Biso      1.000     C          -0.161435           
         C39       1.0000    0.98880   0.74750   0.78100   Biso      1.000     C          -0.15879100000000002          
         C40       1.0000    0.77860   0.28560   0.73470   Biso      1.000     C          -0.161432           
         C41       1.0000    0.97060   0.10520   0.34970   Biso      1.000     C          0.595474  
         C42       1.0000    0.91880   0.19200   0.26570   Biso      1.000     C          0.024222  
         C43       1.0000    0.01120   0.25250   0.21900   Biso      1.000     C          -0.15878599999999998          
         C44       1.0000    0.08120   0.80800   0.73430   Biso      1.000     C          0.024225999999999998          
         C45       1.0000    0.77860   0.21440   0.23470   Biso      1.000     C          -0.161432           
         C46       1.0000    0.02940   0.89480   0.65030   Biso      1.000     C          0.595478  
         C47       1.0000    0.68690   0.72780   0.92240   Biso      1.000     C          0.084521  
         C48       1.0000    0.03970   0.83270   0.35480   Biso      1.000     C          0.08584299999999999           
         Cd1       1.0000    0.25809   0.50497   0.99313   Biso      1.000     Cd          0.9451360000000001  
         Cd2       1.0000    0.74191   0.00497   0.50687   Biso      1.000     Cd          0.9451360000000001  
         Cd3       1.0000    0.25809   0.99503   0.49313   Biso      1.000     Cd          0.9451360000000001  
         Cd4       1.0000    0.74191   0.49503   0.00687   Biso      1.000     Cd          0.9451360000000001  
         H1        1.0000    0.28760   0.67370   0.23680   Biso      1.000     H          0.12020399999999999           
         H2        1.0000    0.02360   0.12700   0.61230   Biso      1.000     H          0.091847  
         H3        1.0000    0.51250   0.68690   0.60990   Biso      1.000     H          0.130314  
         H4        1.0000    0.35950   0.68780   0.85800   Biso      1.000     H          0.083766  
         H5        1.0000    0.66670   0.87790   0.88270   Biso      1.000     H          0.135849  
         H6        1.0000    0.97640   0.62700   0.88770   Biso      1.000     H          0.091848  
         H7        1.0000    0.58750   0.55200   0.73780   Biso      1.000     H          0.09622   
         H8        1.0000    0.28760   0.82630   0.73680   Biso      1.000     H          0.12020399999999999           
         H9        1.0000    0.73020   0.73800   0.00380   Biso      1.000     H          0.094473  
         H10       1.0000    0.89210   0.76110   0.76240   Biso      1.000     H          0.11900899999999999           
         H11       1.0000    0.71240   0.32630   0.76320   Biso      1.000     H          0.12020399999999999           
         H12       1.0000    0.10790   0.23890   0.23760   Biso      1.000     H          0.11900799999999999           
         H13       1.0000    0.71240   0.17370   0.26320   Biso      1.000     H          0.12020399999999999           
         H14       1.0000    0.51250   0.81310   0.10990   Biso      1.000     H          0.130313  
         H15       1.0000    0.02360   0.37300   0.11230   Biso      1.000     H          0.091848  
         H16       1.0000    0.26980   0.26200   0.99620   Biso      1.000     H          0.094473  
         H17       1.0000    0.64050   0.31220   0.14200   Biso      1.000     H          0.083766  
         H18       1.0000    0.41250   0.44800   0.26220   Biso      1.000     H          0.096221  
         H19       1.0000    0.10790   0.26110   0.73760   Biso      1.000     H          0.11900899999999999           
         H20       1.0000    0.33330   0.12210   0.11730   Biso      1.000     H          0.135848  
         H21       1.0000    0.48750   0.31310   0.39010   Biso      1.000     H          0.130313  
         H22       1.0000    0.48750   0.18690   0.89010   Biso      1.000     H          0.130313  
         H23       1.0000    0.33330   0.37790   0.61730   Biso      1.000     H          0.135847  
         H24       1.0000    0.41250   0.05200   0.76220   Biso      1.000     H          0.096219  
         H25       1.0000    0.66670   0.62210   0.38270   Biso      1.000     H          0.135847  
         H26       1.0000    0.26980   0.23800   0.49620   Biso      1.000     H          0.094473  
         H27       1.0000    0.58750   0.94800   0.23780   Biso      1.000     H          0.096219  
         H28       1.0000    0.89210   0.73890   0.26240   Biso      1.000     H          0.11900899999999999           
         H29       1.0000    0.64050   0.18780   0.64200   Biso      1.000     H          0.083766  
         H30       1.0000    0.35950   0.81220   0.35800   Biso      1.000     H          0.083766  
         H31       1.0000    0.97640   0.87300   0.38770   Biso      1.000     H          0.091847  
         H32       1.0000    0.73020   0.76200   0.50380   Biso      1.000     H          0.094473  
         N1        1.0000    0.17520   0.85560   0.38190   Biso      1.000     N          -0.216775           
         N2        1.0000    0.82480   0.14440   0.61810   Biso      1.000     N          -0.216775           
         N3        1.0000    0.17520   0.64440   0.88190   Biso      1.000     N          -0.21677399999999997          
         N4        1.0000    0.66580   0.63240   0.88160   Biso      1.000     N          -0.22783  
         N5        1.0000    0.33420   0.36760   0.11840   Biso      1.000     N          -0.22783  
         N6        1.0000    0.82480   0.35560   0.11810   Biso      1.000     N          -0.21677399999999997          
         N7        1.0000    0.66580   0.86760   0.38160   Biso      1.000     N          -0.22783  
         N8        1.0000    0.33420   0.13240   0.61840   Biso      1.000     N          -0.22783  
         O1        1.0000    0.41820   0.88100   0.58610   Biso      1.000     O          -0.563707           
         O2        1.0000    0.62030   0.95990   0.65490   Biso      1.000     O          -0.578071           
         O3        1.0000    0.09890   0.10330   0.38950   Biso      1.000     O          -0.570601           
         O4        1.0000    0.88190   0.04290   0.37060   Biso      1.000     O          -0.595075           
         O5        1.0000    0.58180   0.38100   0.91390   Biso      1.000     O          -0.563707           
         O6        1.0000    0.37970   0.45990   0.84510   Biso      1.000     O          -0.578071           
         O7        1.0000    0.62030   0.54010   0.15490   Biso      1.000     O          -0.578071           
         O8        1.0000    0.90110   0.60330   0.11050   Biso      1.000     O          -0.570601           
         O9        1.0000    0.11810   0.54290   0.12940   Biso      1.000     O          -0.595075           
         O10       1.0000    0.58180   0.11900   0.41390   Biso      1.000     O          -0.563707           
         O11       1.0000    0.37970   0.04010   0.34510   Biso      1.000     O          -0.578071           
         O12       1.0000    0.90110   0.89670   0.61050   Biso      1.000     O          -0.570601           
         O13       1.0000    0.11810   0.95710   0.62940   Biso      1.000     O          -0.595075           
         O14       1.0000    0.41820   0.61900   0.08610   Biso      1.000     O          -0.563707           
         O15       1.0000    0.09890   0.39670   0.88950   Biso      1.000     O          -0.570601           
         O16       1.0000    0.88190   0.45710   0.87060   Biso      1.000     O          -0.595075 