
##########################################################################
#               Crystallographic Information Format file
#               Produced by PyCifRW module
#
#  This is a CIF file.  CIF has been adopted by the International
#  Union of Crystallography as the standard for data archiving and
#  transmission.
#
#  For information on this file format, follow the CIF links at
#  http://www.iucr.org
##########################################################################

data_image0

_cell_length_a                          7.6001
_cell_length_b                          9.9758
_cell_length_c                          17.5108
_cell_angle_alpha                       90
_cell_angle_beta                        90
_cell_angle_gamma                       90
_symmetry_space_group_name_H-M          'P 1'
_symmetry_int_tables_number             1
loop_
  _symmetry_equiv_pos_as_xyz
         'x, y, z' 
loop_
  _atom_site_label
  _atom_site_occupancy
  _atom_site_fract_x
  _atom_site_fract_y
  _atom_site_fract_z
  _atom_site_thermal_displace_type
  _atom_site_B_iso_or_equiv
  _atom_site_type_symbol
  _atom_site_charge
         C1        1.0000    0.14950   0.00940   0.35145   Biso      1.000     C          0.124047  
         C2        1.0000    0.35050   0.50940   0.85145   Biso      1.000     C          0.124047  
         C3        1.0000    0.58240   0.98589   0.67750   Biso      1.000     C          0.113062  
         C4        1.0000    0.85050   0.99060   0.64855   Biso      1.000     C          0.124047  
         C5        1.0000    0.91760   0.01411   0.17750   Biso      1.000     C          0.113061  
         C6        1.0000    0.64950   0.00940   0.14855   Biso      1.000     C          0.124049  
         C7        1.0000    0.58240   0.51411   0.67750   Biso      1.000     C          0.113061  
         C8        1.0000    0.85050   0.50940   0.64855   Biso      1.000     C          0.124048  
         C9        1.0000    0.91760   0.48589   0.17750   Biso      1.000     C          0.113062  
         C10       1.0000    0.64950   0.49060   0.14855   Biso      1.000     C          0.124048  
         C11       1.0000    0.14950   0.49060   0.35145   Biso      1.000     C          0.124048  
         C12       1.0000    0.41760   0.01411   0.32250   Biso      1.000     C          0.113062  
         C13       1.0000    0.35050   0.99060   0.85145   Biso      1.000     C          0.124047  
         C14       1.0000    0.41170   0.25000   0.58588   Biso      1.000     C          0.118857  
         C15       1.0000    0.13810   0.25000   0.56714   Biso      1.000     C          0.116967  
         C16       1.0000    0.08830   0.75000   0.08588   Biso      1.000     C          0.118856  
         C17       1.0000    0.36190   0.75000   0.06714   Biso      1.000     C          0.116969  
         C18       1.0000    0.58830   0.75000   0.41412   Biso      1.000     C          0.118856  
         C19       1.0000    0.86190   0.75000   0.43286   Biso      1.000     C          0.116969  
         C20       1.0000    0.91170   0.25000   0.91412   Biso      1.000     C          0.118856  
         C21       1.0000    0.63810   0.25000   0.93286   Biso      1.000     C          0.116969  
         C22       1.0000    0.08240   0.98589   0.82250   Biso      1.000     C          0.113062  
         C23       1.0000    0.41760   0.48589   0.32250   Biso      1.000     C          0.113061  
         C24       1.0000    0.08240   0.51411   0.82250   Biso      1.000     C          0.113062  
         H1        1.0000    0.53530   0.25000   0.57770   Biso      1.000     H          0.066223  
         H2        1.0000    0.53720   0.45920   0.31840   Biso      1.000     H          0.055326  
         H3        1.0000    0.03790   0.46830   0.37230   Biso      1.000     H          0.087764  
         H4        1.0000    0.46210   0.96830   0.87230   Biso      1.000     H          0.087765  
         H5        1.0000    0.46210   0.53170   0.87230   Biso      1.000     H          0.087764  
         H6        1.0000    0.46280   0.95920   0.68160   Biso      1.000     H          0.055327  
         H7        1.0000    0.96210   0.96830   0.62770   Biso      1.000     H          0.087764  
         H8        1.0000    0.03720   0.04080   0.18160   Biso      1.000     H          0.055326  
         H9        1.0000    0.53790   0.03170   0.12770   Biso      1.000     H          0.087764  
         H10       1.0000    0.46280   0.54080   0.68160   Biso      1.000     H          0.055327  
         H11       1.0000    0.96210   0.53170   0.62770   Biso      1.000     H          0.087764  
         H12       1.0000    0.03720   0.45920   0.18160   Biso      1.000     H          0.055327  
         H13       1.0000    0.96280   0.54080   0.81840   Biso      1.000     H          0.055326  
         H14       1.0000    0.53720   0.04080   0.31840   Biso      1.000     H          0.055327  
         H15       1.0000    0.53790   0.46830   0.12770   Biso      1.000     H          0.087764  
         H16       1.0000    0.02620   0.25000   0.54290   Biso      1.000     H          0.085146  
         H17       1.0000    0.96470   0.75000   0.07770   Biso      1.000     H          0.066223  
         H18       1.0000    0.46470   0.75000   0.42230   Biso      1.000     H          0.066223  
         H19       1.0000    0.97380   0.75000   0.45710   Biso      1.000     H          0.085146  
         H20       1.0000    0.47380   0.75000   0.04290   Biso      1.000     H          0.085146  
         H21       1.0000    0.52620   0.25000   0.95710   Biso      1.000     H          0.085146  
         H22       1.0000    0.96280   0.95920   0.81840   Biso      1.000     H          0.055327  
         H23       1.0000    0.03790   0.03170   0.37230   Biso      1.000     H          0.087764  
         H24       1.0000    0.03530   0.25000   0.92230   Biso      1.000     H          0.066223  
         N1        1.0000    0.85388   0.59487   0.20959   Biso      1.000     N          -0.178709           
         N2        1.0000    0.14612   0.09487   0.79041   Biso      1.000     N          -0.178709           
         N3        1.0000    0.67832   0.59813   0.19069   Biso      1.000     N          -0.177275           
         N4        1.0000    0.29570   0.08402   0.36170   Biso      1.000     N          -0.24935  
         N5        1.0000    0.35388   0.90513   0.29041   Biso      1.000     N          -0.178709           
         N6        1.0000    0.79570   0.41598   0.13830   Biso      1.000     N          -0.249351           
         N7        1.0000    0.17832   0.90187   0.30931   Biso      1.000     N          -0.177275           
         N8        1.0000    0.20430   0.91598   0.86170   Biso      1.000     N          -0.24935  
         N9        1.0000    0.32168   0.09813   0.80931   Biso      1.000     N          -0.177274           
         N10       1.0000    0.70730   0.75000   0.47113   Biso      1.000     N          -0.245509           
         N11       1.0000    0.33890   0.25000   0.65435   Biso      1.000     N          -0.176548           
         N12       1.0000    0.79270   0.25000   0.97113   Biso      1.000     N          -0.24551  
         N13       1.0000    0.83970   0.75000   0.35800   Biso      1.000     N          -0.174777           
         N14       1.0000    0.66110   0.75000   0.34565   Biso      1.000     N          -0.176536           
         N15       1.0000    0.33970   0.75000   0.14200   Biso      1.000     N          -0.174778           
         N16       1.0000    0.16110   0.75000   0.15435   Biso      1.000     N          -0.176536           
         N17       1.0000    0.20730   0.75000   0.02887   Biso      1.000     N          -0.24551  
         N18       1.0000    0.16030   0.25000   0.64200   Biso      1.000     N          -0.174765           
         N19       1.0000    0.82168   0.40187   0.69069   Biso      1.000     N          -0.177283           
         N20       1.0000    0.29270   0.25000   0.52887   Biso      1.000     N          -0.245509           
         N21       1.0000    0.64612   0.40513   0.70959   Biso      1.000     N          -0.178701           
         N22       1.0000    0.66030   0.25000   0.85800   Biso      1.000     N          -0.174778           
         N23       1.0000    0.67832   0.90187   0.19069   Biso      1.000     N          -0.177283           
         N24       1.0000    0.83890   0.25000   0.84565   Biso      1.000     N          -0.176536           
         N25       1.0000    0.29570   0.41598   0.36170   Biso      1.000     N          -0.24935  
         N26       1.0000    0.70430   0.58402   0.63830   Biso      1.000     N          -0.24935  
         N27       1.0000    0.17832   0.59813   0.30931   Biso      1.000     N          -0.177283           
         N28       1.0000    0.20430   0.58402   0.86170   Biso      1.000     N          -0.24935  
         N29       1.0000    0.14612   0.40513   0.79041   Biso      1.000     N          -0.178709           
         N30       1.0000    0.35388   0.59487   0.29041   Biso      1.000     N          -0.178701           
         N31       1.0000    0.70430   0.91598   0.63830   Biso      1.000     N          -0.24935  
         N32       1.0000    0.64612   0.09487   0.70959   Biso      1.000     N          -0.178709           
         N33       1.0000    0.82168   0.09813   0.69069   Biso      1.000     N          -0.177275           
         N34       1.0000    0.79570   0.08402   0.13830   Biso      1.000     N          -0.249351           
         N35       1.0000    0.85388   0.90513   0.20959   Biso      1.000     N          -0.178701           
         N36       1.0000    0.32168   0.40187   0.80931   Biso      1.000     N          -0.177275           
         Zn1       1.0000    0.98977   0.25000   0.73704   Biso      1.000     Zn          0.534203  
         Zn2       1.0000    0.84975   0.25000   0.08074   Biso      1.000     Zn          0.125694  
         Zn3       1.0000    0.51023   0.75000   0.23704   Biso      1.000     Zn          0.534203  
         Zn4       1.0000    0.65025   0.75000   0.58074   Biso      1.000     Zn          0.125694  
         Zn5       1.0000    0.01023   0.75000   0.26296   Biso      1.000     Zn          0.534203  
         Zn6       1.0000    0.15025   0.75000   0.91926   Biso      1.000     Zn          0.125694  
         Zn7       1.0000    0.48977   0.25000   0.76296   Biso      1.000     Zn          0.534203  
         Zn8       1.0000    0.34975   0.25000   0.41926   Biso      1.000     Zn          0.125693 