
##########################################################################
#               Crystallographic Information Format file
#               Produced by PyCifRW module
#
#  This is a CIF file.  CIF has been adopted by the International
#  Union of Crystallography as the standard for data archiving and
#  transmission.
#
#  For information on this file format, follow the CIF links at
#  http://www.iucr.org
##########################################################################

data_image0

_cell_length_a                          10.1889
_cell_length_b                          16.651
_cell_length_c                          19.73
_cell_angle_alpha                       90
_cell_angle_beta                        101.825
_cell_angle_gamma                       90
_symmetry_space_group_name_H-M          'P 1'
_symmetry_int_tables_number             1
loop_
  _symmetry_equiv_pos_as_xyz
         'x, y, z' 
loop_
  _atom_site_label
  _atom_site_occupancy
  _atom_site_fract_x
  _atom_site_fract_y
  _atom_site_fract_z
  _atom_site_thermal_displace_type
  _atom_site_B_iso_or_equiv
  _atom_site_type_symbol
  _atom_site_charge
         C1        1.0000    0.87670   0.18430   0.11580   Biso      1.000     C          0.055332000000000006          
         C2        1.0000    0.34750   0.74230   0.34760   Biso      1.000     C          -0.126851           
         C3        1.0000    0.35010   0.68170   0.30100   Biso      1.000     C          0.08480800000000001           
         C4        1.0000    0.41130   0.60900   0.32200   Biso      1.000     C          -0.11494000000000001          
         C5        1.0000    0.46280   0.59400   0.39010   Biso      1.000     C          -0.066829           
         C6        1.0000    0.46460   0.65190   0.43730   Biso      1.000     C          0.046854  
         C7        1.0000    0.40770   0.72740   0.41900   Biso      1.000     C          -0.082717           
         C8        1.0000    0.40430   0.79010   0.47320   Biso      1.000     C          0.651297  
         C9        1.0000    0.75710   0.33100   0.36520   Biso      1.000     C          0.647882  
         C10       1.0000    0.24390   0.33000   0.35370   Biso      1.000     C          0.582209  
         C11       1.0000    0.83760   0.29090   0.25760   Biso      1.000     C          -0.15823800000000002          
         C12       1.0000    0.86540   0.31240   0.32460   Biso      1.000     C          -0.030876999999999998         
         C13       1.0000    0.00230   0.32620   0.35470   Biso      1.000     C          -0.140087           
         C14       1.0000    0.09940   0.31410   0.31860   Biso      1.000     C          -0.009991           
         C15       1.0000    0.52860   0.51550   0.40970   Biso      1.000     C          0.650096  
         C16       1.0000    0.06880   0.28770   0.24760   Biso      1.000     C          -0.16062200000000001          
         C17       1.0000    0.84300   0.50980   0.93990   Biso      1.000     C          -0.467717           
         C18       1.0000    0.86600   0.45480   0.99860   Biso      1.000     C          0.070142  
         C19       1.0000    0.81800   0.30720   0.02330   Biso      1.000     C          0.204911  
         C20       1.0000    0.85530   0.32250   0.09560   Biso      1.000     C          -0.28032399999999996          
         C21       1.0000    0.89200   0.26000   0.14170   Biso      1.000     C          0.055896  
         C22       1.0000    0.87320   0.12050   0.16090   Biso      1.000     C          -0.223333           
         C23       1.0000    0.83390   0.04480   0.13480   Biso      1.000     C          0.156093  
         C24       1.0000    0.79800   0.03280   0.06370   Biso      1.000     C          -0.175226           
         C25       1.0000    0.80150   0.09660   0.01860   Biso      1.000     C          -0.12496800000000001          
         C26       1.0000    0.84090   0.17230   0.04470   Biso      1.000     C          0.059241999999999996          
         C27       1.0000    0.60990   0.18360   0.82050   Biso      1.000     C          -0.27269499999999997          
         C28       1.0000    0.38200   0.13530   0.97290   Biso      1.000     C          -0.47191700000000003          
         C29       1.0000    0.43100   0.15180   0.90930   Biso      1.000     C          0.06447699999999999           
         C30       1.0000    0.93130   0.28190   0.21760   Biso      1.000     C          0.084891  
         C31       1.0000    0.30530   0.69930   0.22440   Biso      1.000     C          0.03438   
         C32       1.0000    0.16630   0.72510   0.19740   Biso      1.000     C          0.028944  
         C33       1.0000    0.07040   0.73510   0.23990   Biso      1.000     C          -0.23003099999999999          
         C34       1.0000    0.24290   0.83100   0.63480   Biso      1.000     C          0.647881  
         C35       1.0000    0.75610   0.83000   0.64630   Biso      1.000     C          0.582209  
         C36       1.0000    0.16240   0.79090   0.74240   Biso      1.000     C          -0.15823800000000002          
         C37       1.0000    0.13460   0.81240   0.67540   Biso      1.000     C          -0.030876999999999998         
         C38       1.0000    0.99770   0.82620   0.64530   Biso      1.000     C          -0.140087           
         C39       1.0000    0.90060   0.81410   0.68140   Biso      1.000     C          -0.009991           
         C40       1.0000    0.93120   0.78770   0.75240   Biso      1.000     C          -0.16062200000000001          
         C41       1.0000    0.06870   0.78190   0.78240   Biso      1.000     C          0.084892  
         C42       1.0000    0.15700   0.00980   0.06010   Biso      1.000     C          -0.467717           
         C43       1.0000    0.13400   0.95480   0.00140   Biso      1.000     C          0.070142  
         C44       1.0000    0.18200   0.80720   0.97670   Biso      1.000     C          0.204911  
         C45       1.0000    0.14470   0.82250   0.90440   Biso      1.000     C          -0.280323           
         C46       1.0000    0.10800   0.76000   0.85830   Biso      1.000     C          0.055885000000000004          
         C47       1.0000    0.12330   0.68430   0.88420   Biso      1.000     C          0.055344000000000004          
         C48       1.0000    0.12680   0.62050   0.83910   Biso      1.000     C          -0.223334           
         C49       1.0000    0.16610   0.54480   0.86520   Biso      1.000     C          0.156093  
         C50       1.0000    0.20200   0.53280   0.93630   Biso      1.000     C          -0.175226           
         C51       1.0000    0.19850   0.59660   0.98140   Biso      1.000     C          -0.12496800000000001          
         C52       1.0000    0.15910   0.67230   0.95530   Biso      1.000     C          0.059240999999999995          
         C53       1.0000    0.17400   0.73050   0.00250   Biso      1.000     C          -0.065914           
         C54       1.0000    0.39010   0.68360   0.17950   Biso      1.000     C          -0.272692           
         C55       1.0000    0.61800   0.63530   0.02710   Biso      1.000     C          -0.47191700000000003          
         C56       1.0000    0.56900   0.65180   0.09070   Biso      1.000     C          0.06447699999999999           
         C57       1.0000    0.34510   0.69470   0.11080   Biso      1.000     C          0.21645799999999998           
         C58       1.0000    0.21760   0.72290   0.07940   Biso      1.000     C          -0.063927           
         C59       1.0000    0.12310   0.73540   0.12320   Biso      1.000     C          0.046573  
         C60       1.0000    0.99670   0.76400   0.09720   Biso      1.000     C          -0.105451           
         C61       1.0000    0.90840   0.77040   0.13680   Biso      1.000     C          -0.168045           
         C62       1.0000    0.94480   0.75610   0.20880   Biso      1.000     C          0.16413599999999998           
         C63       1.0000    0.65490   0.19470   0.88920   Biso      1.000     C          0.21645799999999998           
         C64       1.0000    0.78240   0.22290   0.92060   Biso      1.000     C          -0.063927           
         C65       1.0000    0.82600   0.23050   0.99750   Biso      1.000     C          -0.065914           
         C66       1.0000    0.00330   0.26400   0.90280   Biso      1.000     C          -0.105457           
         C67       1.0000    0.87690   0.23540   0.87680   Biso      1.000     C          0.046577999999999994          
         C68       1.0000    0.59570   0.29010   0.52680   Biso      1.000     C          0.651297  
         C69       1.0000    0.59230   0.22740   0.58100   Biso      1.000     C          -0.082718           
         C70       1.0000    0.53720   0.09400   0.60990   Biso      1.000     C          -0.06684  
         C71       1.0000    0.58870   0.10900   0.67800   Biso      1.000     C          -0.11493099999999999          
         C72       1.0000    0.64990   0.18170   0.69900   Biso      1.000     C          0.084803  
         C73       1.0000    0.65250   0.24230   0.65240   Biso      1.000     C          -0.126845           
         C74       1.0000    0.53540   0.15190   0.56270   Biso      1.000     C          0.046855  
         C75       1.0000    0.69470   0.19930   0.77560   Biso      1.000     C          0.034383  
         C76       1.0000    0.47140   0.01550   0.59030   Biso      1.000     C          0.650097  
         C77       1.0000    0.05520   0.25610   0.79120   Biso      1.000     C          0.164114  
         C78       1.0000    0.92960   0.23510   0.76010   Biso      1.000     C          -0.23000700000000002          
         C79       1.0000    0.09160   0.27040   0.86320   Biso      1.000     C          -0.168042           
         C80       1.0000    0.83370   0.22510   0.80260   Biso      1.000     C          0.028941  
         Cl1       1.0000    0.82130   0.76120   0.25970   Biso      1.000     Cl          -0.138462           
         Cl2       1.0000    0.83410   0.96790   0.19420   Biso      1.000     Cl          -0.129098           
         Cl3       1.0000    0.17870   0.26120   0.74030   Biso      1.000     Cl          -0.138461           
         Cl4       1.0000    0.16590   0.46790   0.80580   Biso      1.000     Cl          -0.129098           
         H1        1.0000    0.91250   0.55130   0.94690   Biso      1.000     H          0.157813  
         H2        1.0000    0.75470   0.53520   0.93600   Biso      1.000     H          0.146787  
         H3        1.0000    0.83540   0.47930   0.03820   Biso      1.000     H          0.072894  
         H4        1.0000    0.96360   0.44350   0.01300   Biso      1.000     H          0.074158  
         H5        1.0000    0.85500   0.37600   0.11220   Biso      1.000     H          0.13350499999999998           
         H6        1.0000    0.89770   0.12870   0.20950   Biso      1.000     H          0.129674  
         H7        1.0000    0.77110   0.98100   0.04590   Biso      1.000     H          0.125769  
         H8        1.0000    0.77700   0.08840   0.97000   Biso      1.000     H          0.11070899999999999           
         H9        1.0000    0.52110   0.16510   0.80320   Biso      1.000     H          0.133168  
         H10       1.0000    0.69270   0.29260   0.66680   Biso      1.000     H          0.137303  
         H11       1.0000    0.28540   0.14610   0.96500   Biso      1.000     H          0.148336  
         H12       1.0000    0.42900   0.16990   0.01030   Biso      1.000     H          0.170257  
         H13       1.0000    0.43550   0.10200   0.88260   Biso      1.000     H          0.08106000000000001           
         H14       1.0000    0.37190   0.19090   0.87960   Biso      1.000     H          0.072627  
         H15       1.0000    0.02720   0.27950   0.95010   Biso      1.000     H          0.117452  
         H16       1.0000    0.18140   0.28470   0.88330   Biso      1.000     H          0.120807  
         H17       1.0000    0.90590   0.22720   0.71150   Biso      1.000     H          0.134421  
         H18       1.0000    0.84500   0.48010   0.89730   Biso      1.000     H          0.164465  
         H19       1.0000    0.58250   0.06900   0.71160   Biso      1.000     H          0.131673  
         H20       1.0000    0.39860   0.07890   0.98600   Biso      1.000     H          0.148753  
         H21       1.0000    0.13660   0.27500   0.22270   Biso      1.000     H          0.139013  
         H22       1.0000    0.30730   0.79260   0.33320   Biso      1.000     H          0.137304  
         H23       1.0000    0.74640   0.28130   0.23650   Biso      1.000     H          0.122707  
         H24       1.0000    0.25360   0.78130   0.76350   Biso      1.000     H          0.122707  
         H25       1.0000    0.97390   0.84440   0.59880   Biso      1.000     H          0.11695699999999999           
         H26       1.0000    0.86340   0.77500   0.77730   Biso      1.000     H          0.139013  
         H27       1.0000    0.15500   0.98010   0.10270   Biso      1.000     H          0.164465  
         H28       1.0000    0.08750   0.05130   0.05310   Biso      1.000     H          0.157813  
         H29       1.0000    0.02610   0.34440   0.40120   Biso      1.000     H          0.11695699999999999           
         H30       1.0000    0.16460   0.97930   0.96180   Biso      1.000     H          0.072894  
         H31       1.0000    0.03640   0.94350   0.98700   Biso      1.000     H          0.074158  
         H32       1.0000    0.14500   0.87600   0.88780   Biso      1.000     H          0.13350499999999998           
         H33       1.0000    0.10230   0.62870   0.79050   Biso      1.000     H          0.129674  
         H34       1.0000    0.22890   0.48100   0.95410   Biso      1.000     H          0.125769  
         H35       1.0000    0.24530   0.03520   0.06400   Biso      1.000     H          0.146787  
         H36       1.0000    0.47890   0.66510   0.19680   Biso      1.000     H          0.133168  
         H37       1.0000    0.60140   0.57890   0.01400   Biso      1.000     H          0.148753  
         H38       1.0000    0.71460   0.64610   0.03500   Biso      1.000     H          0.148336  
         H39       1.0000    0.57100   0.66990   0.98970   Biso      1.000     H          0.170257  
         H40       1.0000    0.56450   0.60200   0.11740   Biso      1.000     H          0.08106000000000001           
         H41       1.0000    0.62810   0.69090   0.12040   Biso      1.000     H          0.072627  
         H42       1.0000    0.97280   0.77950   0.04990   Biso      1.000     H          0.117451  
         H43       1.0000    0.81860   0.78470   0.11670   Biso      1.000     H          0.120808  
         H44       1.0000    0.22300   0.58840   0.03000   Biso      1.000     H          0.11070899999999999           
         H45       1.0000    0.09410   0.72720   0.28850   Biso      1.000     H          0.13442300000000001           
         H46       1.0000    0.41750   0.56900   0.28840   Biso      1.000     H          0.131673  
         O1        1.0000    0.78790   0.37440   0.97670   Biso      1.000     O          -0.277309           
         O2        1.0000    0.46760   0.77500   0.53150   Biso      1.000     O          -0.501378           
         O3        1.0000    0.32750   0.85170   0.45420   Biso      1.000     O          -0.631633           
         O4        1.0000    0.60390   0.50790   0.46870   Biso      1.000     O          -0.61417  
         O5        1.0000    0.35680   0.81260   0.66330   Biso      1.000     O          -0.49991499999999994          
         O6        1.0000    0.56970   0.18680   0.93620   Biso      1.000     O          -0.229079           
         O7        1.0000    0.66570   0.80430   0.67960   Biso      1.000     O          -0.600755           
         O8        1.0000    0.20560   0.86390   0.57790   Biso      1.000     O          -0.647179           
         O9        1.0000    0.72620   0.86150   0.59140   Biso      1.000     O          -0.539698           
         O10       1.0000    0.49930   0.45860   0.36800   Biso      1.000     O          -0.528345           
         O11       1.0000    0.64320   0.31260   0.33670   Biso      1.000     O          -0.49991499999999994          
         O12       1.0000    0.21210   0.87440   0.02330   Biso      1.000     O          -0.277309           
         O13       1.0000    0.27380   0.36150   0.40860   Biso      1.000     O          -0.539698           
         O14       1.0000    0.33430   0.30430   0.32040   Biso      1.000     O          -0.600755           
         O15       1.0000    0.50070   0.95860   0.63200   Biso      1.000     O          -0.528345           
         O16       1.0000    0.39610   0.00790   0.53130   Biso      1.000     O          -0.614169           
         O17       1.0000    0.67250   0.35170   0.54580   Biso      1.000     O          -0.631633           
         O18       1.0000    0.53240   0.27500   0.46850   Biso      1.000     O          -0.501378           
         O19       1.0000    0.43030   0.68680   0.06380   Biso      1.000     O          -0.229079           
         O20       1.0000    0.79440   0.36390   0.42210   Biso      1.000     O          -0.647179           
         Zn1       1.0000    0.24220   0.93616   0.49973   Biso      1.000     Zn          1.141354  
         Zn2       1.0000    0.50206   0.84196   0.61545   Biso      1.000     Zn          0.941433  
         Zn3       1.0000    0.75780   0.43616   0.50027   Biso      1.000     Zn          1.141354  
         Zn4       1.0000    0.49794   0.34196   0.38455   Biso      1.000     Zn          0.941433 