
##########################################################################
#               Crystallographic Information Format file
#               Produced by PyCifRW module
#
#  This is a CIF file.  CIF has been adopted by the International
#  Union of Crystallography as the standard for data archiving and
#  transmission.
#
#  For information on this file format, follow the CIF links at
#  http://www.iucr.org
##########################################################################

data_image0

_cell_length_a                          9.5321
_cell_length_b                          9.5321
_cell_length_c                          15.451
_cell_angle_alpha                       92.8651
_cell_angle_beta                        92.8651
_cell_angle_gamma                       99.0412
_symmetry_space_group_name_H-M          'P 1'
_symmetry_int_tables_number             1
loop_
  _symmetry_equiv_pos_as_xyz
         'x, y, z' 
loop_
  _atom_site_label
  _atom_site_occupancy
  _atom_site_fract_x
  _atom_site_fract_y
  _atom_site_fract_z
  _atom_site_thermal_displace_type
  _atom_site_B_iso_or_equiv
  _atom_site_type_symbol
  _atom_site_charge
         C1        1.0000    0.98330   0.49530   0.78030   Biso      1.000     C          -0.10429300000000001          
         C2        1.0000    0.14220   0.55060   0.27870   Biso      1.000     C          -0.465113           
         C3        1.0000    0.01670   0.50470   0.21970   Biso      1.000     C          -0.10429300000000001          
         C4        1.0000    0.44940   0.85780   0.22130   Biso      1.000     C          -0.465113           
         C5        1.0000    0.49530   0.98330   0.28030   Biso      1.000     C          -0.10429200000000001          
         C6        1.0000    0.85780   0.44940   0.72130   Biso      1.000     C          -0.465113           
         C7        1.0000    0.55060   0.14220   0.77870   Biso      1.000     C          -0.465114           
         C8        1.0000    0.50470   0.01670   0.71970   Biso      1.000     C          -0.10429200000000001          
         Er1       1.0000    0.01086   0.98914   0.75000   Biso      1.000     Er          2.2444509999999998  
         Er2       1.0000    0.98914   0.01086   0.25000   Biso      1.000     Er          2.244452  
         H1        1.0000    0.22520   0.57900   0.24500   Biso      1.000     H          0.169732  
         H2        1.0000    0.12620   0.63160   0.31650   Biso      1.000     H          0.172397  
         H3        1.0000    0.15900   0.47200   0.31430   Biso      1.000     H          0.17746099999999998           
         H4        1.0000    0.82960   0.42040   0.23250   Biso      1.000     H          0.382856  
         H5        1.0000    0.36840   0.87380   0.18350   Biso      1.000     H          0.172396  
         H6        1.0000    0.52800   0.84100   0.18570   Biso      1.000     H          0.17746099999999998           
         H7        1.0000    0.57960   0.17040   0.26750   Biso      1.000     H          0.382855  
         H8        1.0000    0.42100   0.77480   0.25500   Biso      1.000     H          0.169733  
         H9        1.0000    0.87380   0.36840   0.68350   Biso      1.000     H          0.172397  
         H10       1.0000    0.84100   0.52800   0.68570   Biso      1.000     H          0.17746099999999998           
         H11       1.0000    0.17040   0.57960   0.76750   Biso      1.000     H          0.382856  
         H12       1.0000    0.57900   0.22520   0.74500   Biso      1.000     H          0.169732  
         H13       1.0000    0.63160   0.12620   0.81650   Biso      1.000     H          0.172396  
         H14       1.0000    0.47200   0.15900   0.81430   Biso      1.000     H          0.17746099999999998           
         H15       1.0000    0.42040   0.82960   0.73250   Biso      1.000     H          0.382855  
         H16       1.0000    0.77480   0.42100   0.75500   Biso      1.000     H          0.169733  
         O1        1.0000    0.69110   0.09030   0.41390   Biso      1.000     O          -0.71107  
         O2        1.0000    0.92590   0.76690   0.80050   Biso      1.000     O          -0.8559610000000001           
         O3        1.0000    0.89570   0.30870   0.90130   Biso      1.000     O          -0.6779229999999999           
         O4        1.0000    0.15820   0.40560   0.90580   Biso      1.000     O          -0.657278           
         O5        1.0000    0.04500   0.22740   0.78520   Biso      1.000     O          -0.8370120000000001           
         O6        1.0000    0.09990   0.54930   0.73260   Biso      1.000     O          -0.48618100000000003          
         O7        1.0000    0.59140   0.83220   0.41040   Biso      1.000     O          -0.636259           
         O8        1.0000    0.76690   0.92590   0.30050   Biso      1.000     O          -0.8559629999999999           
         O9        1.0000    0.84180   0.59440   0.09420   Biso      1.000     O          -0.657277           
         O10       1.0000    0.40560   0.15820   0.40580   Biso      1.000     O          -0.657276           
         O11       1.0000    0.22740   0.04500   0.28520   Biso      1.000     O          -0.8370139999999999           
         O12       1.0000    0.54930   0.09990   0.23260   Biso      1.000     O          -0.48618100000000003          
         O13       1.0000    0.16780   0.40860   0.08960   Biso      1.000     O          -0.636258           
         O14       1.0000    0.90970   0.30890   0.08610   Biso      1.000     O          -0.711071           
         O15       1.0000    0.07410   0.23310   0.19950   Biso      1.000     O          -0.8559610000000001           
         O16       1.0000    0.10430   0.69130   0.09870   Biso      1.000     O          -0.677924           
         O17       1.0000    0.09030   0.69110   0.91390   Biso      1.000     O          -0.711071           
         O18       1.0000    0.30870   0.89570   0.40130   Biso      1.000     O          -0.677924           
         O19       1.0000    0.83220   0.59140   0.91040   Biso      1.000     O          -0.636257           
         O20       1.0000    0.90010   0.45070   0.26740   Biso      1.000     O          -0.48618100000000003          
         O21       1.0000    0.77260   0.95500   0.71480   Biso      1.000     O          -0.8370129999999999           
         O22       1.0000    0.59440   0.84180   0.59420   Biso      1.000     O          -0.657278           
         O23       1.0000    0.69130   0.10430   0.59870   Biso      1.000     O          -0.6779229999999999           
         O24       1.0000    0.23310   0.07410   0.69950   Biso      1.000     O          -0.8559620000000001           
         O25       1.0000    0.30890   0.90970   0.58610   Biso      1.000     O          -0.711072           
         O26       1.0000    0.40860   0.16780   0.58960   Biso      1.000     O          -0.636257           
         O27       1.0000    0.95500   0.77260   0.21480   Biso      1.000     O          -0.8370120000000001           
         O28       1.0000    0.45070   0.90010   0.76740   Biso      1.000     O          -0.48618199999999995          
         P1        1.0000    0.34835   0.02373   0.34571   Biso      1.000     P          1.215119  
         P2        1.0000    0.64607   0.95509   0.35404   Biso      1.000     P          1.209388  
         P3        1.0000    0.95509   0.64607   0.85404   Biso      1.000     P          1.209386  
         P4        1.0000    0.65165   0.97627   0.65429   Biso      1.000     P          1.215119  
         P5        1.0000    0.35393   0.04491   0.64596   Biso      1.000     P          1.209386  
         P6        1.0000    0.04491   0.35393   0.14596   Biso      1.000     P          1.209386  
         P7        1.0000    0.02373   0.34835   0.84571   Biso      1.000     P          1.215118  
         P8        1.0000    0.97627   0.65165   0.15429   Biso      1.000     P          1.215117  
         Ru1       1.0000    0.12164   0.54568   0.00190   Biso      1.000     Ru          0.9819209999999999  
         Ru2       1.0000    0.45432   0.87836   0.49810   Biso      1.000     Ru          0.9819200000000001  
         Ru3       1.0000    0.87836   0.45432   0.99810   Biso      1.000     Ru          0.9819100000000001  
         Ru4       1.0000    0.54568   0.12164   0.50190   Biso      1.000     Ru          0.981908 