
##########################################################################
#               Crystallographic Information Format file
#               Produced by PyCifRW module
#
#  This is a CIF file.  CIF has been adopted by the International
#  Union of Crystallography as the standard for data archiving and
#  transmission.
#
#  For information on this file format, follow the CIF links at
#  http://www.iucr.org
##########################################################################

data_image0

_cell_length_a                          9.6116
_cell_length_b                          9.6116
_cell_length_c                          15.548
_cell_angle_alpha                       92.9302
_cell_angle_beta                        92.9302
_cell_angle_gamma                       99.0745
_symmetry_space_group_name_H-M          'P 1'
_symmetry_int_tables_number             1
loop_
  _symmetry_equiv_pos_as_xyz
         'x, y, z' 
loop_
  _atom_site_label
  _atom_site_occupancy
  _atom_site_fract_x
  _atom_site_fract_y
  _atom_site_fract_z
  _atom_site_thermal_displace_type
  _atom_site_B_iso_or_equiv
  _atom_site_type_symbol
  _atom_site_charge
         C1        1.0000    0.98090   0.49370   0.78110   Biso      1.000     C          -0.11426900000000001          
         C2        1.0000    0.14560   0.55240   0.27840   Biso      1.000     C          -0.452975           
         C3        1.0000    0.01910   0.50630   0.21890   Biso      1.000     C          -0.11426900000000001          
         C4        1.0000    0.44760   0.85440   0.22160   Biso      1.000     C          -0.452975           
         C5        1.0000    0.49370   0.98090   0.28110   Biso      1.000     C          -0.11426900000000001          
         C6        1.0000    0.85440   0.44760   0.72160   Biso      1.000     C          -0.452975           
         C7        1.0000    0.55240   0.14560   0.77840   Biso      1.000     C          -0.452975           
         C8        1.0000    0.50630   0.01910   0.71890   Biso      1.000     C          -0.11426900000000001          
         Dy1       1.0000    0.01085   0.98915   0.75000   Biso      1.000     Dy          2.242193  
         Dy2       1.0000    0.98915   0.01085   0.25000   Biso      1.000     Dy          2.242194  
         H1        1.0000    0.82400   0.42200   0.23000   Biso      1.000     H          0.36441999999999997           
         H2        1.0000    0.22830   0.57790   0.24470   Biso      1.000     H          0.17098   
         H3        1.0000    0.13110   0.63430   0.31490   Biso      1.000     H          0.17105499999999998           
         H4        1.0000    0.16080   0.47520   0.31470   Biso      1.000     H          0.177621  
         H5        1.0000    0.42210   0.77170   0.25530   Biso      1.000     H          0.170981  
         H6        1.0000    0.36570   0.86890   0.18510   Biso      1.000     H          0.17105499999999998           
         H7        1.0000    0.52480   0.83920   0.18530   Biso      1.000     H          0.177621  
         H8        1.0000    0.57800   0.17600   0.27000   Biso      1.000     H          0.36441999999999997           
         H9        1.0000    0.77170   0.42210   0.75530   Biso      1.000     H          0.17098   
         H10       1.0000    0.86890   0.36570   0.68510   Biso      1.000     H          0.17105499999999998           
         H11       1.0000    0.83920   0.52480   0.68530   Biso      1.000     H          0.177621  
         H12       1.0000    0.42200   0.82400   0.73000   Biso      1.000     H          0.36441999999999997           
         H13       1.0000    0.57790   0.22830   0.74470   Biso      1.000     H          0.170981  
         H14       1.0000    0.63430   0.13110   0.81490   Biso      1.000     H          0.17105499999999998           
         H15       1.0000    0.47520   0.16080   0.81470   Biso      1.000     H          0.177621  
         H16       1.0000    0.17600   0.57800   0.77000   Biso      1.000     H          0.36441999999999997           
         O1        1.0000    0.69000   0.09080   0.41370   Biso      1.000     O          -0.704141           
         O2        1.0000    0.92420   0.76580   0.80010   Biso      1.000     O          -0.8486600000000001           
         O3        1.0000    0.89610   0.30810   0.90140   Biso      1.000     O          -0.677357           
         O4        1.0000    0.15690   0.40470   0.90540   Biso      1.000     O          -0.654849           
         O5        1.0000    0.04560   0.22780   0.78560   Biso      1.000     O          -0.8313209999999999           
         O6        1.0000    0.10040   0.55040   0.73220   Biso      1.000     O          -0.475624           
         O7        1.0000    0.59160   0.83160   0.41060   Biso      1.000     O          -0.630919           
         O8        1.0000    0.76580   0.92420   0.30010   Biso      1.000     O          -0.8486600000000001           
         O9        1.0000    0.84310   0.59530   0.09460   Biso      1.000     O          -0.6548510000000001           
         O10       1.0000    0.40470   0.15690   0.40540   Biso      1.000     O          -0.65485  
         O11       1.0000    0.22780   0.04560   0.28560   Biso      1.000     O          -0.8313209999999999           
         O12       1.0000    0.55040   0.10040   0.23220   Biso      1.000     O          -0.475624           
         O13       1.0000    0.16840   0.40840   0.08940   Biso      1.000     O          -0.630918           
         O14       1.0000    0.90920   0.31000   0.08630   Biso      1.000     O          -0.7041430000000001           
         O15       1.0000    0.07580   0.23420   0.19990   Biso      1.000     O          -0.8486600000000001           
         O16       1.0000    0.10390   0.69190   0.09860   Biso      1.000     O          -0.677355           
         O17       1.0000    0.09080   0.69000   0.91370   Biso      1.000     O          -0.704141           
         O18       1.0000    0.30810   0.89610   0.40140   Biso      1.000     O          -0.6773560000000001           
         O19       1.0000    0.83160   0.59160   0.91060   Biso      1.000     O          -0.63092  
         O20       1.0000    0.89960   0.44960   0.26780   Biso      1.000     O          -0.475624           
         O21       1.0000    0.77220   0.95440   0.71440   Biso      1.000     O          -0.8313209999999999           
         O22       1.0000    0.59530   0.84310   0.59460   Biso      1.000     O          -0.65485  
         O23       1.0000    0.69190   0.10390   0.59860   Biso      1.000     O          -0.6773560000000001           
         O24       1.0000    0.23420   0.07580   0.69990   Biso      1.000     O          -0.8486600000000001           
         O25       1.0000    0.31000   0.90920   0.58630   Biso      1.000     O          -0.704142           
         O26       1.0000    0.40840   0.16840   0.58940   Biso      1.000     O          -0.630919           
         O27       1.0000    0.95440   0.77220   0.21440   Biso      1.000     O          -0.8313209999999999           
         O28       1.0000    0.44960   0.89960   0.76780   Biso      1.000     O          -0.475624           
         P1        1.0000    0.34850   0.02392   0.34571   Biso      1.000     P          1.213845  
         P2        1.0000    0.64607   0.95517   0.35443   Biso      1.000     P          1.196437  
         P3        1.0000    0.95517   0.64607   0.85443   Biso      1.000     P          1.196436  
         P4        1.0000    0.65150   0.97608   0.65429   Biso      1.000     P          1.213845  
         P5        1.0000    0.35393   0.04483   0.64557   Biso      1.000     P          1.196436  
         P6        1.0000    0.04483   0.35393   0.14557   Biso      1.000     P          1.196437  
         P7        1.0000    0.02392   0.34850   0.84571   Biso      1.000     P          1.213845  
         P8        1.0000    0.97608   0.65150   0.15429   Biso      1.000     P          1.213845  
         Ru1       1.0000    0.12160   0.54552   0.00202   Biso      1.000     Ru          0.9746610000000001  
         Ru2       1.0000    0.45448   0.87840   0.49798   Biso      1.000     Ru          0.9746610000000001  
         Ru3       1.0000    0.87840   0.45448   0.99798   Biso      1.000     Ru          0.974662  
         Ru4       1.0000    0.54552   0.12160   0.50202   Biso      1.000     Ru          0.9746610000000001 