
##########################################################################
#               Crystallographic Information Format file
#               Produced by PyCifRW module
#
#  This is a CIF file.  CIF has been adopted by the International
#  Union of Crystallography as the standard for data archiving and
#  transmission.
#
#  For information on this file format, follow the CIF links at
#  http://www.iucr.org
##########################################################################

data_image0

_cell_length_a                          9.6921
_cell_length_b                          9.6921
_cell_length_c                          15.6938
_cell_angle_alpha                       92.7017
_cell_angle_beta                        92.7017
_cell_angle_gamma                       99.0196
_symmetry_space_group_name_H-M          'P 1'
_symmetry_int_tables_number             1
loop_
  _symmetry_equiv_pos_as_xyz
         'x, y, z' 
loop_
  _atom_site_label
  _atom_site_occupancy
  _atom_site_fract_x
  _atom_site_fract_y
  _atom_site_fract_z
  _atom_site_thermal_displace_type
  _atom_site_B_iso_or_equiv
  _atom_site_type_symbol
  _atom_site_charge
         C1        1.0000    0.98480   0.49600   0.78500   Biso      1.000     C          -0.118059           
         C2        1.0000    0.14320   0.55380   0.27510   Biso      1.000     C          -0.472363           
         C3        1.0000    0.01520   0.50400   0.21500   Biso      1.000     C          -0.118059           
         C4        1.0000    0.44620   0.85680   0.22490   Biso      1.000     C          -0.472364           
         C5        1.0000    0.49600   0.98480   0.28500   Biso      1.000     C          -0.118059           
         C6        1.0000    0.85680   0.44620   0.72490   Biso      1.000     C          -0.472364           
         C7        1.0000    0.55380   0.14320   0.77510   Biso      1.000     C          -0.472364           
         C8        1.0000    0.50400   0.01520   0.71500   Biso      1.000     C          -0.118059           
         Ce1       1.0000    0.01140   0.98860   0.75000   Biso      1.000     Ce          2.225607  
         Ce2       1.0000    0.98860   0.01140   0.25000   Biso      1.000     Ce          2.225607  
         H1        1.0000    0.82400   0.50800   0.27100   Biso      1.000     H          0.370867  
         H2        1.0000    0.22510   0.58030   0.24160   Biso      1.000     H          0.166871  
         H3        1.0000    0.12710   0.63490   0.31070   Biso      1.000     H          0.162984  
         H4        1.0000    0.16000   0.47820   0.31170   Biso      1.000     H          0.175028  
         H5        1.0000    0.41970   0.77490   0.25840   Biso      1.000     H          0.166871  
         H6        1.0000    0.36510   0.87290   0.18930   Biso      1.000     H          0.162984  
         H7        1.0000    0.52180   0.84000   0.18830   Biso      1.000     H          0.175028  
         H8        1.0000    0.49200   0.17600   0.22900   Biso      1.000     H          0.370867  
         H9        1.0000    0.77490   0.41970   0.75840   Biso      1.000     H          0.166871  
         H10       1.0000    0.87290   0.36510   0.68930   Biso      1.000     H          0.162984  
         H11       1.0000    0.84000   0.52180   0.68830   Biso      1.000     H          0.175028  
         H12       1.0000    0.50800   0.82400   0.77100   Biso      1.000     H          0.370867  
         H13       1.0000    0.58030   0.22510   0.74160   Biso      1.000     H          0.166871  
         H14       1.0000    0.63490   0.12710   0.81070   Biso      1.000     H          0.162984  
         H15       1.0000    0.47820   0.16000   0.81170   Biso      1.000     H          0.175028  
         H16       1.0000    0.17600   0.49200   0.72900   Biso      1.000     H          0.370867  
         O1        1.0000    0.68836   0.08912   0.41464   Biso      1.000     O          -0.698486           
         O2        1.0000    0.92278   0.75984   0.80238   Biso      1.000     O          -0.824756           
         O3        1.0000    0.89875   0.30997   0.90284   Biso      1.000     O          -0.679206           
         O4        1.0000    0.15611   0.40771   0.90754   Biso      1.000     O          -0.657124           
         O5        1.0000    0.04995   0.23219   0.78924   Biso      1.000     O          -0.820784           
         O6        1.0000    0.10143   0.55017   0.73567   Biso      1.000     O          -0.479567           
         O7        1.0000    0.58893   0.83193   0.41091   Biso      1.000     O          -0.645867           
         O8        1.0000    0.75984   0.92278   0.30238   Biso      1.000     O          -0.824756           
         O9        1.0000    0.84389   0.59229   0.09246   Biso      1.000     O          -0.657125           
         O10       1.0000    0.40771   0.15611   0.40754   Biso      1.000     O          -0.657123           
         O11       1.0000    0.23219   0.04995   0.28924   Biso      1.000     O          -0.820784           
         O12       1.0000    0.55017   0.10143   0.23567   Biso      1.000     O          -0.479567           
         O13       1.0000    0.16807   0.41107   0.08909   Biso      1.000     O          -0.645866           
         O14       1.0000    0.91088   0.31164   0.08536   Biso      1.000     O          -0.698488           
         O15       1.0000    0.07722   0.24016   0.19762   Biso      1.000     O          -0.824756           
         O16       1.0000    0.10125   0.69003   0.09716   Biso      1.000     O          -0.679205           
         O17       1.0000    0.08912   0.68836   0.91464   Biso      1.000     O          -0.698487           
         O18       1.0000    0.30997   0.89875   0.40284   Biso      1.000     O          -0.679206           
         O19       1.0000    0.83193   0.58893   0.91091   Biso      1.000     O          -0.645867           
         O20       1.0000    0.89857   0.44983   0.26433   Biso      1.000     O          -0.479567           
         O21       1.0000    0.76781   0.95005   0.71076   Biso      1.000     O          -0.820784           
         O22       1.0000    0.59229   0.84389   0.59246   Biso      1.000     O          -0.657126           
         O23       1.0000    0.69003   0.10125   0.59716   Biso      1.000     O          -0.679204           
         O24       1.0000    0.24016   0.07722   0.69762   Biso      1.000     O          -0.824756           
         O25       1.0000    0.31164   0.91088   0.58536   Biso      1.000     O          -0.698489           
         O26       1.0000    0.41107   0.16807   0.58909   Biso      1.000     O          -0.645865           
         O27       1.0000    0.95005   0.76781   0.21076   Biso      1.000     O          -0.820784           
         O28       1.0000    0.44983   0.89857   0.76433   Biso      1.000     O          -0.479567           
         P1        1.0000    0.35134   0.02592   0.34835   Biso      1.000     P          1.200409  
         P2        1.0000    0.64358   0.95472   0.35610   Biso      1.000     P          1.22738   
         P3        1.0000    0.95472   0.64358   0.85610   Biso      1.000     P          1.22738   
         P4        1.0000    0.64866   0.97408   0.65165   Biso      1.000     P          1.200409  
         P5        1.0000    0.35642   0.04528   0.64390   Biso      1.000     P          1.22738   
         P6        1.0000    0.04528   0.35642   0.14390   Biso      1.000     P          1.22738   
         P7        1.0000    0.02592   0.35134   0.84835   Biso      1.000     P          1.200409  
         P8        1.0000    0.97408   0.64866   0.15165   Biso      1.000     P          1.200409  
         Ru1       1.0000    0.12006   0.54622   0.00207   Biso      1.000     Ru          0.979869  
         Ru2       1.0000    0.45378   0.87994   0.49793   Biso      1.000     Ru          0.979871  
         Ru3       1.0000    0.87994   0.45378   0.99793   Biso      1.000     Ru          0.979872  
         Ru4       1.0000    0.54622   0.12006   0.50207   Biso      1.000     Ru          0.97987 