
##########################################################################
#               Crystallographic Information Format file
#               Produced by PyCifRW module
#
#  This is a CIF file.  CIF has been adopted by the International
#  Union of Crystallography as the standard for data archiving and
#  transmission.
#
#  For information on this file format, follow the CIF links at
#  http://www.iucr.org
##########################################################################

data_image0

_cell_length_a                          9.6116
_cell_length_b                          9.6116
_cell_length_c                          15.548
_cell_angle_alpha                       92.9302
_cell_angle_beta                        92.9302
_cell_angle_gamma                       99.0745
_symmetry_space_group_name_H-M          'P 1'
_symmetry_int_tables_number             1
loop_
  _symmetry_equiv_pos_as_xyz
         'x, y, z' 
loop_
  _atom_site_label
  _atom_site_occupancy
  _atom_site_fract_x
  _atom_site_fract_y
  _atom_site_fract_z
  _atom_site_thermal_displace_type
  _atom_site_B_iso_or_equiv
  _atom_site_type_symbol
  _atom_site_charge
         C1        1.0000    0.98260   0.49540   0.78280   Biso      1.000     C          -0.126434           
         C2        1.0000    0.14530   0.55270   0.27840   Biso      1.000     C          -0.45194399999999996          
         C3        1.0000    0.01740   0.50460   0.21720   Biso      1.000     C          -0.126434           
         C4        1.0000    0.44730   0.85470   0.22160   Biso      1.000     C          -0.45194399999999996          
         C5        1.0000    0.49540   0.98260   0.28280   Biso      1.000     C          -0.126434           
         C6        1.0000    0.85470   0.44730   0.72160   Biso      1.000     C          -0.45194399999999996          
         C7        1.0000    0.55270   0.14530   0.77840   Biso      1.000     C          -0.45194399999999996          
         C8        1.0000    0.50460   0.01740   0.71720   Biso      1.000     C          -0.126434           
         Gd1       1.0000    0.01105   0.98895   0.75000   Biso      1.000     Gd          2.191271  
         Gd2       1.0000    0.98895   0.01105   0.25000   Biso      1.000     Gd          2.191271  
         H1        1.0000    0.22780   0.58180   0.24520   Biso      1.000     H          0.16866199999999998           
         H2        1.0000    0.12830   0.63270   0.31590   Biso      1.000     H          0.170291  
         H3        1.0000    0.16240   0.47500   0.31380   Biso      1.000     H          0.175793  
         H4        1.0000    0.82400   0.42200   0.23000   Biso      1.000     H          0.36790900000000004           
         H5        1.0000    0.36730   0.87170   0.18410   Biso      1.000     H          0.170291  
         H6        1.0000    0.52500   0.83760   0.18620   Biso      1.000     H          0.175793  
         H7        1.0000    0.57800   0.17600   0.27000   Biso      1.000     H          0.36790900000000004           
         H8        1.0000    0.41820   0.77220   0.25480   Biso      1.000     H          0.16866199999999998           
         H9        1.0000    0.87170   0.36730   0.68410   Biso      1.000     H          0.170291  
         H10       1.0000    0.83760   0.52500   0.68620   Biso      1.000     H          0.175793  
         H11       1.0000    0.17600   0.57800   0.77000   Biso      1.000     H          0.36790900000000004           
         H12       1.0000    0.58180   0.22780   0.74520   Biso      1.000     H          0.16866199999999998           
         H13       1.0000    0.63270   0.12830   0.81590   Biso      1.000     H          0.170291  
         H14       1.0000    0.47500   0.16240   0.81380   Biso      1.000     H          0.175794  
         H15       1.0000    0.42200   0.82400   0.73000   Biso      1.000     H          0.36790900000000004           
         H16       1.0000    0.77220   0.41820   0.75480   Biso      1.000     H          0.168663  
         O1        1.0000    0.69020   0.09120   0.41410   Biso      1.000     O          -0.705055           
         O2        1.0000    0.92310   0.76510   0.80120   Biso      1.000     O          -0.832153           
         O3        1.0000    0.89530   0.30890   0.90160   Biso      1.000     O          -0.6802020000000001           
         O4        1.0000    0.15510   0.40650   0.90640   Biso      1.000     O          -0.660605           
         O5        1.0000    0.04590   0.22950   0.78570   Biso      1.000     O          -0.81218  
         O6        1.0000    0.10040   0.55060   0.73340   Biso      1.000     O          -0.47497399999999995          
         O7        1.0000    0.59090   0.83150   0.41050   Biso      1.000     O          -0.632586           
         O8        1.0000    0.76510   0.92310   0.30120   Biso      1.000     O          -0.832153           
         O9        1.0000    0.84490   0.59350   0.09360   Biso      1.000     O          -0.660601           
         O10       1.0000    0.40650   0.15510   0.40640   Biso      1.000     O          -0.660604           
         O11       1.0000    0.22950   0.04590   0.28570   Biso      1.000     O          -0.81218  
         O12       1.0000    0.55060   0.10040   0.23340   Biso      1.000     O          -0.47497399999999995          
         O13       1.0000    0.16850   0.40910   0.08950   Biso      1.000     O          -0.6325890000000001           
         O14       1.0000    0.90880   0.30980   0.08590   Biso      1.000     O          -0.705052           
         O15       1.0000    0.07690   0.23490   0.19880   Biso      1.000     O          -0.832153           
         O16       1.0000    0.10470   0.69110   0.09840   Biso      1.000     O          -0.6802050000000001           
         O17       1.0000    0.09120   0.69020   0.91410   Biso      1.000     O          -0.705055           
         O18       1.0000    0.30890   0.89530   0.40160   Biso      1.000     O          -0.6802020000000001           
         O19       1.0000    0.83150   0.59090   0.91050   Biso      1.000     O          -0.632586           
         O20       1.0000    0.89960   0.44940   0.26660   Biso      1.000     O          -0.47497399999999995          
         O21       1.0000    0.77050   0.95410   0.71430   Biso      1.000     O          -0.81218  
         O22       1.0000    0.59350   0.84490   0.59360   Biso      1.000     O          -0.660601           
         O23       1.0000    0.69110   0.10470   0.59840   Biso      1.000     O          -0.6802050000000001           
         O24       1.0000    0.23490   0.07690   0.69880   Biso      1.000     O          -0.832153           
         O25       1.0000    0.30980   0.90880   0.58590   Biso      1.000     O          -0.705052           
         O26       1.0000    0.40910   0.16850   0.58950   Biso      1.000     O          -0.6325890000000001           
         O27       1.0000    0.95410   0.77050   0.21430   Biso      1.000     O          -0.81218  
         O28       1.0000    0.44940   0.89960   0.76660   Biso      1.000     O          -0.47497399999999995          
         P1        1.0000    0.34909   0.02359   0.34596   Biso      1.000     P          1.218876  
         P2        1.0000    0.64558   0.95470   0.35517   Biso      1.000     P          1.1998440000000001  
         P3        1.0000    0.95470   0.64558   0.85517   Biso      1.000     P          1.1998440000000001  
         P4        1.0000    0.65091   0.97641   0.65404   Biso      1.000     P          1.218876  
         P5        1.0000    0.35442   0.04530   0.64483   Biso      1.000     P          1.1998440000000001  
         P6        1.0000    0.04530   0.35442   0.14483   Biso      1.000     P          1.1998440000000001  
         P7        1.0000    0.02359   0.34909   0.84596   Biso      1.000     P          1.218876  
         P8        1.0000    0.97641   0.65091   0.15404   Biso      1.000     P          1.218875  
         Ru1       1.0000    0.12123   0.54565   0.00195   Biso      1.000     Ru          0.979123  
         Ru2       1.0000    0.45435   0.87877   0.49805   Biso      1.000     Ru          0.9791190000000001  
         Ru3       1.0000    0.87877   0.45435   0.99805   Biso      1.000     Ru          0.9791209999999999  
         Ru4       1.0000    0.54565   0.12123   0.50195   Biso      1.000     Ru          0.979125 