
##########################################################################
#               Crystallographic Information Format file
#               Produced by PyCifRW module
#
#  This is a CIF file.  CIF has been adopted by the International
#  Union of Crystallography as the standard for data archiving and
#  transmission.
#
#  For information on this file format, follow the CIF links at
#  http://www.iucr.org
##########################################################################

data_image0

_cell_length_a                          9.5515
_cell_length_b                          9.5515
_cell_length_c                          15.39
_cell_angle_alpha                       92.7105
_cell_angle_beta                        92.7105
_cell_angle_gamma                       98.2997
_symmetry_space_group_name_H-M          'P 1'
_symmetry_int_tables_number             1
loop_
  _symmetry_equiv_pos_as_xyz
         'x, y, z' 
loop_
  _atom_site_label
  _atom_site_occupancy
  _atom_site_fract_x
  _atom_site_fract_y
  _atom_site_fract_z
  _atom_site_thermal_displace_type
  _atom_site_B_iso_or_equiv
  _atom_site_type_symbol
  _atom_site_charge
         C1        1.0000    0.97930   0.49690   0.78370   Biso      1.000     C          -0.14115999999999998          
         C2        1.0000    0.14650   0.55090   0.27900   Biso      1.000     C          -0.45038900000000004          
         C3        1.0000    0.02070   0.50310   0.21630   Biso      1.000     C          -0.14115999999999998          
         C4        1.0000    0.44910   0.85350   0.22100   Biso      1.000     C          -0.45038900000000004          
         C5        1.0000    0.49690   0.97930   0.28370   Biso      1.000     C          -0.14115899999999998          
         C6        1.0000    0.85350   0.44910   0.72100   Biso      1.000     C          -0.45038900000000004          
         C7        1.0000    0.55090   0.14650   0.77900   Biso      1.000     C          -0.45038900000000004          
         C8        1.0000    0.50310   0.02070   0.71630   Biso      1.000     C          -0.14115999999999998          
         H1        1.0000    0.41620   0.77060   0.25360   Biso      1.000     H          0.165795  
         H2        1.0000    0.37170   0.87430   0.18190   Biso      1.000     H          0.172155  
         H3        1.0000    0.52860   0.83400   0.18660   Biso      1.000     H          0.17743599999999998           
         H4        1.0000    0.57530   0.16890   0.26440   Biso      1.000     H          0.374125  
         H5        1.0000    0.77060   0.41620   0.75360   Biso      1.000     H          0.165795  
         H6        1.0000    0.87430   0.37170   0.68190   Biso      1.000     H          0.172154  
         H7        1.0000    0.83400   0.52860   0.68660   Biso      1.000     H          0.17743599999999998           
         H8        1.0000    0.47140   0.16600   0.81340   Biso      1.000     H          0.17743599999999998           
         H9        1.0000    0.58380   0.22940   0.74640   Biso      1.000     H          0.165795  
         H10       1.0000    0.62830   0.12570   0.81810   Biso      1.000     H          0.172154  
         H11       1.0000    0.83110   0.42470   0.23560   Biso      1.000     H          0.374125  
         H12       1.0000    0.42470   0.83110   0.73560   Biso      1.000     H          0.37412399999999996           
         H13       1.0000    0.12570   0.62830   0.31810   Biso      1.000     H          0.172154  
         H14       1.0000    0.22940   0.58380   0.24640   Biso      1.000     H          0.165795  
         H15       1.0000    0.16890   0.57530   0.76440   Biso      1.000     H          0.374125  
         H16       1.0000    0.16600   0.47140   0.31340   Biso      1.000     H          0.17743599999999998           
         Ho1       1.0000    0.00995   0.99005   0.75000   Biso      1.000     Ho          2.257073  
         Ho2       1.0000    0.99005   0.00995   0.25000   Biso      1.000     Ho          2.2570740000000002  
         O1        1.0000    0.83520   0.59520   0.91320   Biso      1.000     O          -0.640206           
         O2        1.0000    0.89450   0.30730   0.90190   Biso      1.000     O          -0.684301           
         O3        1.0000    0.15590   0.40450   0.90640   Biso      1.000     O          -0.662313           
         O4        1.0000    0.04770   0.22850   0.78590   Biso      1.000     O          -0.82999  
         O5        1.0000    0.09840   0.54500   0.72950   Biso      1.000     O          -0.489779           
         O6        1.0000    0.59520   0.83520   0.41320   Biso      1.000     O          -0.640204           
         O7        1.0000    0.69190   0.09030   0.41380   Biso      1.000     O          -0.713701           
         O8        1.0000    0.76670   0.92850   0.30210   Biso      1.000     O          -0.857467           
         O9        1.0000    0.30730   0.89450   0.40190   Biso      1.000     O          -0.684299           
         O10       1.0000    0.40450   0.15590   0.40640   Biso      1.000     O          -0.6623140000000001           
         O11       1.0000    0.22850   0.04770   0.28590   Biso      1.000     O          -0.82999  
         O12       1.0000    0.54500   0.09840   0.22950   Biso      1.000     O          -0.489779           
         O13       1.0000    0.16480   0.40480   0.08680   Biso      1.000     O          -0.640204           
         O14       1.0000    0.90970   0.30810   0.08620   Biso      1.000     O          -0.713701           
         O15       1.0000    0.07150   0.23330   0.19790   Biso      1.000     O          -0.857467           
         O16       1.0000    0.10550   0.69270   0.09810   Biso      1.000     O          -0.684299           
         O17       1.0000    0.84410   0.59550   0.09360   Biso      1.000     O          -0.662315           
         O18       1.0000    0.92850   0.76670   0.80210   Biso      1.000     O          -0.857467           
         O19       1.0000    0.09030   0.69190   0.91380   Biso      1.000     O          -0.7137   
         O20       1.0000    0.90160   0.45500   0.27050   Biso      1.000     O          -0.489779           
         O21       1.0000    0.45500   0.90160   0.77050   Biso      1.000     O          -0.489779           
         O22       1.0000    0.77150   0.95230   0.71410   Biso      1.000     O          -0.82999  
         O23       1.0000    0.59550   0.84410   0.59360   Biso      1.000     O          -0.662313           
         O24       1.0000    0.69270   0.10550   0.59810   Biso      1.000     O          -0.684301           
         O25       1.0000    0.23330   0.07150   0.69790   Biso      1.000     O          -0.857467           
         O26       1.0000    0.30810   0.90970   0.58620   Biso      1.000     O          -0.7137   
         O27       1.0000    0.40480   0.16480   0.58680   Biso      1.000     O          -0.640206           
         O28       1.0000    0.95230   0.77150   0.21410   Biso      1.000     O          -0.82999  
         P1        1.0000    0.34712   0.02314   0.34546   Biso      1.000     P          1.228323  
         P2        1.0000    0.64682   0.95592   0.35488   Biso      1.000     P          1.241839  
         P3        1.0000    0.95592   0.64682   0.85488   Biso      1.000     P          1.241839  
         P4        1.0000    0.97686   0.65288   0.15454   Biso      1.000     P          1.228323  
         P5        1.0000    0.65288   0.97686   0.65454   Biso      1.000     P          1.228322  
         P6        1.0000    0.35318   0.04408   0.64512   Biso      1.000     P          1.24184   
         P7        1.0000    0.02314   0.34712   0.84546   Biso      1.000     P          1.228322  
         P8        1.0000    0.04408   0.35318   0.14512   Biso      1.000     P          1.241839  
         Ru1       1.0000    0.12146   0.54530   0.00194   Biso      1.000     Ru          0.981089  
         Ru2       1.0000    0.45470   0.87854   0.49806   Biso      1.000     Ru          0.98109   
         Ru3       1.0000    0.87854   0.45470   0.99806   Biso      1.000     Ru          0.9811    
         Ru4       1.0000    0.54530   0.12146   0.50194   Biso      1.000     Ru          0.9810979999999999 