
##########################################################################
#               Crystallographic Information Format file
#               Produced by PyCifRW module
#
#  This is a CIF file.  CIF has been adopted by the International
#  Union of Crystallography as the standard for data archiving and
#  transmission.
#
#  For information on this file format, follow the CIF links at
#  http://www.iucr.org
##########################################################################

data_image0

_cell_length_a                          9.5899
_cell_length_b                          9.5899
_cell_length_c                          15.524
_cell_angle_alpha                       92.9192
_cell_angle_beta                        92.9192
_cell_angle_gamma                       98.9866
_symmetry_space_group_name_H-M          'P 1'
_symmetry_int_tables_number             1
loop_
  _symmetry_equiv_pos_as_xyz
         'x, y, z' 
loop_
  _atom_site_label
  _atom_site_occupancy
  _atom_site_fract_x
  _atom_site_fract_y
  _atom_site_fract_z
  _atom_site_thermal_displace_type
  _atom_site_B_iso_or_equiv
  _atom_site_type_symbol
  _atom_site_charge
         C1        1.0000    0.98520   0.49400   0.78300   Biso      1.000     C          -0.129986           
         C2        1.0000    0.14280   0.55300   0.27950   Biso      1.000     C          -0.453571           
         C3        1.0000    0.01480   0.50600   0.21700   Biso      1.000     C          -0.129986           
         C4        1.0000    0.44700   0.85720   0.22050   Biso      1.000     C          -0.453571           
         C5        1.0000    0.49400   0.98520   0.28300   Biso      1.000     C          -0.129986           
         C6        1.0000    0.85720   0.44700   0.72050   Biso      1.000     C          -0.453571           
         C7        1.0000    0.55300   0.14280   0.77950   Biso      1.000     C          -0.453571           
         C8        1.0000    0.50600   0.01480   0.71700   Biso      1.000     C          -0.129986           
         H1        1.0000    0.22820   0.57140   0.24700   Biso      1.000     H          0.166411  
         H2        1.0000    0.13050   0.63950   0.31260   Biso      1.000     H          0.16833   
         H3        1.0000    0.15250   0.47830   0.31910   Biso      1.000     H          0.177341  
         H4        1.0000    0.83080   0.42160   0.23270   Biso      1.000     H          0.378684  
         H5        1.0000    0.36050   0.86950   0.18740   Biso      1.000     H          0.16833   
         H6        1.0000    0.52170   0.84750   0.18090   Biso      1.000     H          0.177341  
         H7        1.0000    0.57840   0.16920   0.26730   Biso      1.000     H          0.378684  
         H8        1.0000    0.77180   0.42860   0.75300   Biso      1.000     H          0.166411  
         H9        1.0000    0.42860   0.77180   0.25300   Biso      1.000     H          0.166412  
         H10       1.0000    0.84750   0.52170   0.68090   Biso      1.000     H          0.177341  
         H11       1.0000    0.16920   0.57840   0.76730   Biso      1.000     H          0.378684  
         H12       1.0000    0.57140   0.22820   0.74700   Biso      1.000     H          0.166412  
         H13       1.0000    0.63950   0.13050   0.81260   Biso      1.000     H          0.16833   
         H14       1.0000    0.47830   0.15250   0.81910   Biso      1.000     H          0.177341  
         H15       1.0000    0.42160   0.83080   0.73270   Biso      1.000     H          0.378684  
         H16       1.0000    0.86950   0.36050   0.68740   Biso      1.000     H          0.16833   
         O1        1.0000    0.09250   0.68910   0.91400   Biso      1.000     O          -0.710814           
         O2        1.0000    0.92510   0.76390   0.80180   Biso      1.000     O          -0.842489           
         O3        1.0000    0.89450   0.30870   0.90110   Biso      1.000     O          -0.678126           
         O4        1.0000    0.15590   0.40550   0.90670   Biso      1.000     O          -0.660238           
         O5        1.0000    0.84410   0.59450   0.09330   Biso      1.000     O          -0.66024  
         O6        1.0000    0.10550   0.69130   0.09890   Biso      1.000     O          -0.678123           
         O7        1.0000    0.07490   0.23610   0.19820   Biso      1.000     O          -0.842489           
         O8        1.0000    0.90750   0.31090   0.08600   Biso      1.000     O          -0.710817           
         O9        1.0000    0.16770   0.40870   0.08974   Biso      1.000     O          -0.635724           
         O10       1.0000    0.22690   0.04490   0.28742   Biso      1.000     O          -0.834386           
         O11       1.0000    0.54820   0.09880   0.23244   Biso      1.000     O          -0.479622           
         O12       1.0000    0.09880   0.54820   0.73244   Biso      1.000     O          -0.479622           
         O13       1.0000    0.59130   0.83230   0.41026   Biso      1.000     O          -0.635725           
         O14       1.0000    0.68910   0.09250   0.41400   Biso      1.000     O          -0.710816           
         O15       1.0000    0.76390   0.92510   0.30180   Biso      1.000     O          -0.84249  
         O16       1.0000    0.40550   0.15590   0.40670   Biso      1.000     O          -0.660239           
         O17       1.0000    0.30870   0.89450   0.40110   Biso      1.000     O          -0.678124           
         O18       1.0000    0.83230   0.59130   0.91026   Biso      1.000     O          -0.635727           
         O19       1.0000    0.04490   0.22690   0.78742   Biso      1.000     O          -0.834387           
         O20       1.0000    0.45180   0.90120   0.76756   Biso      1.000     O          -0.479622           
         O21       1.0000    0.90120   0.45180   0.26756   Biso      1.000     O          -0.479622           
         O22       1.0000    0.59450   0.84410   0.59330   Biso      1.000     O          -0.660239           
         O23       1.0000    0.69130   0.10550   0.59890   Biso      1.000     O          -0.678125           
         O24       1.0000    0.23610   0.07490   0.69820   Biso      1.000     O          -0.842489           
         O25       1.0000    0.31090   0.90750   0.58600   Biso      1.000     O          -0.710815           
         O26       1.0000    0.40870   0.16770   0.58974   Biso      1.000     O          -0.635726           
         O27       1.0000    0.95510   0.77310   0.21258   Biso      1.000     O          -0.834386           
         O28       1.0000    0.77310   0.95510   0.71258   Biso      1.000     O          -0.834387           
         P1        1.0000    0.35450   0.04476   0.64540   Biso      1.000     P          1.206758  
         P2        1.0000    0.65136   0.97710   0.65365   Biso      1.000     P          1.227906  
         P3        1.0000    0.95524   0.64550   0.85460   Biso      1.000     P          1.206758  
         P4        1.0000    0.02290   0.34864   0.84635   Biso      1.000     P          1.227906  
         P5        1.0000    0.64550   0.95524   0.35460   Biso      1.000     P          1.206758  
         P6        1.0000    0.97710   0.65136   0.15365   Biso      1.000     P          1.227906  
         P7        1.0000    0.04476   0.35450   0.14540   Biso      1.000     P          1.206758  
         P8        1.0000    0.34864   0.02290   0.34635   Biso      1.000     P          1.227906  
         Ru1       1.0000    0.54526   0.12112   0.50205   Biso      1.000     Ru          0.978976  
         Ru2       1.0000    0.87888   0.45474   0.99795   Biso      1.000     Ru          0.978985  
         Ru3       1.0000    0.45474   0.87888   0.49795   Biso      1.000     Ru          0.978983  
         Ru4       1.0000    0.12112   0.54526   0.00205   Biso      1.000     Ru          0.978974  
         Tb1       1.0000    0.98897   0.01103   0.25000   Biso      1.000     Tb          2.2411    
         Tb2       1.0000    0.01103   0.98897   0.75000   Biso      1.000     Tb          2.2411 