
##########################################################################
#               Crystallographic Information Format file
#               Produced by PyCifRW module
#
#  This is a CIF file.  CIF has been adopted by the International
#  Union of Crystallography as the standard for data archiving and
#  transmission.
#
#  For information on this file format, follow the CIF links at
#  http://www.iucr.org
##########################################################################

data_image0

_cell_length_a                          9.9402
_cell_length_b                          9.9402
_cell_length_c                          15.69
_cell_angle_alpha                       92.4662
_cell_angle_beta                        92.4662
_cell_angle_gamma                       97.1781
_symmetry_space_group_name_H-M          'P 1'
_symmetry_int_tables_number             1
loop_
  _symmetry_equiv_pos_as_xyz
         'x, y, z' 
loop_
  _atom_site_label
  _atom_site_occupancy
  _atom_site_fract_x
  _atom_site_fract_y
  _atom_site_fract_z
  _atom_site_thermal_displace_type
  _atom_site_B_iso_or_equiv
  _atom_site_type_symbol
  _atom_site_charge
         C1        1.0000    0.50130   0.01870   0.71730   Biso      1.000     C          -0.019328           
         C2        1.0000    0.14650   0.55330   0.26980   Biso      1.000     C          -0.478971           
         C3        1.0000    0.01870   0.50130   0.21730   Biso      1.000     C          -0.019328           
         C4        1.0000    0.44670   0.85350   0.23020   Biso      1.000     C          -0.478972           
         C5        1.0000    0.49870   0.98130   0.28270   Biso      1.000     C          -0.019328           
         C6        1.0000    0.85350   0.44670   0.73020   Biso      1.000     C          -0.478972           
         C7        1.0000    0.98130   0.49870   0.78270   Biso      1.000     C          -0.019328           
         C8        1.0000    0.55330   0.14650   0.76980   Biso      1.000     C          -0.478971           
         H1        1.0000    0.06980   0.88100   0.11270   Biso      1.000     H          0.445415  
         H2        1.0000    0.15070   0.01450   0.12130   Biso      1.000     H          0.487603  
         H3        1.0000    0.45040   0.87140   0.16940   Biso      1.000     H          0.178822  
         H4        1.0000    0.50340   0.78240   0.24340   Biso      1.000     H          0.178704  
         H5        1.0000    0.84750   0.43010   0.22070   Biso      1.000     H          0.393085  
         H6        1.0000    0.17660   0.64720   0.25620   Biso      1.000     H          0.148274  
         H7        1.0000    0.98550   0.84930   0.37870   Biso      1.000     H          0.487603  
         H8        1.0000    0.12860   0.54960   0.33060   Biso      1.000     H          0.178822  
         H9        1.0000    0.56990   0.15250   0.27930   Biso      1.000     H          0.393086  
         H10       1.0000    0.21760   0.49660   0.25660   Biso      1.000     H          0.178704  
         H11       1.0000    0.11900   0.93020   0.38730   Biso      1.000     H          0.445413  
         H12       1.0000    0.78240   0.50340   0.74340   Biso      1.000     H          0.178705  
         H13       1.0000    0.35280   0.82340   0.24380   Biso      1.000     H          0.148274  
         H14       1.0000    0.87140   0.45040   0.66940   Biso      1.000     H          0.178822  
         H15       1.0000    0.82340   0.35280   0.74380   Biso      1.000     H          0.148274  
         H16       1.0000    0.93020   0.11900   0.88730   Biso      1.000     H          0.445414  
         H17       1.0000    0.84930   0.98550   0.87870   Biso      1.000     H          0.487602  
         H18       1.0000    0.54960   0.12860   0.83060   Biso      1.000     H          0.178822  
         H19       1.0000    0.64720   0.17660   0.75620   Biso      1.000     H          0.148274  
         H20       1.0000    0.43010   0.84750   0.72070   Biso      1.000     H          0.393086  
         H21       1.0000    0.49660   0.21760   0.75660   Biso      1.000     H          0.178705  
         H22       1.0000    0.15250   0.56990   0.77930   Biso      1.000     H          0.393086  
         H23       1.0000    0.88100   0.06980   0.61270   Biso      1.000     H          0.445413  
         H24       1.0000    0.01450   0.15070   0.62130   Biso      1.000     H          0.487603  
         O1        1.0000    0.10160   0.68820   0.09590   Biso      1.000     O          -0.634844           
         O2        1.0000    0.89840   0.31180   0.90410   Biso      1.000     O          -0.634842           
         O3        1.0000    0.15670   0.41530   0.90290   Biso      1.000     O          -0.631837           
         O4        1.0000    0.06260   0.24380   0.77780   Biso      1.000     O          -0.768437           
         O5        1.0000    0.08190   0.53970   0.74440   Biso      1.000     O          -0.44222  
         O6        1.0000    0.96830   0.06810   0.62340   Biso      1.000     O          -0.880452           
         O7        1.0000    0.93740   0.75620   0.22220   Biso      1.000     O          -0.768436           
         O8        1.0000    0.84330   0.58470   0.09710   Biso      1.000     O          -0.631834           
         O9        1.0000    0.92320   0.76300   0.80130   Biso      1.000     O          -0.806137           
         O10       1.0000    0.07680   0.23700   0.19870   Biso      1.000     O          -0.806137           
         O11       1.0000    0.69430   0.09490   0.41960   Biso      1.000     O          -0.656946           
         O12       1.0000    0.16880   0.40720   0.09120   Biso      1.000     O          -0.605774           
         O13       1.0000    0.06810   0.96830   0.12340   Biso      1.000     O          -0.880453           
         O14       1.0000    0.59280   0.83120   0.40880   Biso      1.000     O          -0.605773           
         O15       1.0000    0.76300   0.92320   0.30130   Biso      1.000     O          -0.806136           
         O16       1.0000    0.31180   0.89840   0.40410   Biso      1.000     O          -0.634844           
         O17       1.0000    0.41530   0.15670   0.40290   Biso      1.000     O          -0.631835           
         O18       1.0000    0.53970   0.08190   0.24440   Biso      1.000     O          -0.44222  
         O19       1.0000    0.24380   0.06260   0.27780   Biso      1.000     O          -0.768437           
         O20       1.0000    0.09490   0.69430   0.91960   Biso      1.000     O          -0.656948           
         O21       1.0000    0.90510   0.30570   0.08040   Biso      1.000     O          -0.656945           
         O22       1.0000    0.83120   0.59280   0.90880   Biso      1.000     O          -0.605771           
         O23       1.0000    0.03170   0.93190   0.37660   Biso      1.000     O          -0.880452           
         O24       1.0000    0.46030   0.91810   0.75560   Biso      1.000     O          -0.44222  
         O25       1.0000    0.75620   0.93740   0.72220   Biso      1.000     O          -0.768437           
         O26       1.0000    0.58470   0.84330   0.59710   Biso      1.000     O          -0.631836           
         O27       1.0000    0.68820   0.10160   0.59590   Biso      1.000     O          -0.634842           
         O28       1.0000    0.23700   0.07680   0.69870   Biso      1.000     O          -0.806136           
         O29       1.0000    0.30570   0.90510   0.58040   Biso      1.000     O          -0.656947           
         O30       1.0000    0.40720   0.16880   0.59120   Biso      1.000     O          -0.605771           
         O31       1.0000    0.91810   0.46030   0.25560   Biso      1.000     O          -0.44222  
         O32       1.0000    0.93190   0.03170   0.87660   Biso      1.000     O          -0.880453           
         P1        1.0000    0.64317   0.95365   0.35839   Biso      1.000     P          1.054829  
         P2        1.0000    0.35026   0.02260   0.34833   Biso      1.000     P          1.030052  
         P3        1.0000    0.04635   0.35683   0.14161   Biso      1.000     P          1.054829  
         P4        1.0000    0.95365   0.64317   0.85839   Biso      1.000     P          1.054829  
         P5        1.0000    0.64974   0.97740   0.65167   Biso      1.000     P          1.030052  
         P6        1.0000    0.35683   0.04635   0.64161   Biso      1.000     P          1.054829  
         P7        1.0000    0.02260   0.35026   0.84833   Biso      1.000     P          1.030052  
         P8        1.0000    0.97740   0.64974   0.15167   Biso      1.000     P          1.030052  
         Pr1       1.0000    0.98942   0.01058   0.25000   Biso      1.000     Pr          2.163566  
         Pr2       1.0000    0.01058   0.98942   0.75000   Biso      1.000     Pr          2.163568  
         Ru1       1.0000    0.45531   0.88101   0.49662   Biso      1.000     Ru          0.926378  
         Ru2       1.0000    0.11899   0.54469   0.00338   Biso      1.000     Ru          0.926379  
         Ru3       1.0000    0.88101   0.45531   0.99662   Biso      1.000     Ru          0.926372  
         Ru4       1.0000    0.54469   0.11899   0.50338   Biso      1.000     Ru          0.926373 