
##########################################################################
#               Crystallographic Information Format file
#               Produced by PyCifRW module
#
#  This is a CIF file.  CIF has been adopted by the International
#  Union of Crystallography as the standard for data archiving and
#  transmission.
#
#  For information on this file format, follow the CIF links at
#  http://www.iucr.org
##########################################################################

data_image0

_cell_length_a                          9.72
_cell_length_b                          9.72
_cell_length_c                          15.7262
_cell_angle_alpha                       92.7414
_cell_angle_beta                        92.7414
_cell_angle_gamma                       99.086
_symmetry_space_group_name_H-M          'P 1'
_symmetry_int_tables_number             1
loop_
  _symmetry_equiv_pos_as_xyz
         'x, y, z' 
loop_
  _atom_site_label
  _atom_site_occupancy
  _atom_site_fract_x
  _atom_site_fract_y
  _atom_site_fract_z
  _atom_site_thermal_displace_type
  _atom_site_B_iso_or_equiv
  _atom_site_type_symbol
  _atom_site_charge
         C1        1.0000    0.98499   0.49581   0.78565   Biso      1.000     C          -0.129221           
         C2        1.0000    0.14273   0.55427   0.27486   Biso      1.000     C          -0.469329           
         C3        1.0000    0.01501   0.50419   0.21435   Biso      1.000     C          -0.129221           
         C4        1.0000    0.44573   0.85727   0.22514   Biso      1.000     C          -0.469341           
         C5        1.0000    0.49581   0.98499   0.28565   Biso      1.000     C          -0.12921300000000002          
         C6        1.0000    0.85727   0.44573   0.72514   Biso      1.000     C          -0.46932799999999997          
         C7        1.0000    0.55427   0.14273   0.77486   Biso      1.000     C          -0.46934  
         C8        1.0000    0.50419   0.01501   0.71435   Biso      1.000     C          -0.12921300000000002          
         H1        1.0000    0.48900   0.17900   0.23700   Biso      1.000     H          0.359633  
         H2        1.0000    0.41850   0.77550   0.25840   Biso      1.000     H          0.166775  
         H3        1.0000    0.36530   0.87390   0.18940   Biso      1.000     H          0.162933  
         H4        1.0000    0.52120   0.84040   0.18890   Biso      1.000     H          0.174586  
         H5        1.0000    0.17900   0.48900   0.73700   Biso      1.000     H          0.359641  
         H6        1.0000    0.77550   0.41850   0.75840   Biso      1.000     H          0.16678099999999998           
         H7        1.0000    0.87390   0.36530   0.68940   Biso      1.000     H          0.162961  
         H8        1.0000    0.63470   0.12610   0.81060   Biso      1.000     H          0.162933  
         H9        1.0000    0.51100   0.82100   0.76300   Biso      1.000     H          0.359633  
         H10       1.0000    0.58150   0.22450   0.74160   Biso      1.000     H          0.166775  
         H11       1.0000    0.15960   0.47880   0.31110   Biso      1.000     H          0.17460599999999998           
         H12       1.0000    0.47880   0.15960   0.81110   Biso      1.000     H          0.174585  
         H13       1.0000    0.22450   0.58150   0.24160   Biso      1.000     H          0.16678099999999998           
         H14       1.0000    0.82100   0.51100   0.26300   Biso      1.000     H          0.359641  
         H15       1.0000    0.84040   0.52120   0.68890   Biso      1.000     H          0.17460699999999998           
         H16       1.0000    0.12610   0.63470   0.31060   Biso      1.000     H          0.162961  
         La1       1.0000    0.01171   0.98829   0.75000   Biso      1.000     La          2.150668  
         La2       1.0000    0.98829   0.01171   0.25000   Biso      1.000     La          2.150667  
         O1        1.0000    0.83173   0.58813   0.91103   Biso      1.000     O          -0.64418  
         O2        1.0000    0.89939   0.31015   0.90296   Biso      1.000     O          -0.6765979999999999           
         O3        1.0000    0.15602   0.40836   0.90789   Biso      1.000     O          -0.656317           
         O4        1.0000    0.05046   0.23372   0.78944   Biso      1.000     O          -0.795254           
         O5        1.0000    0.10191   0.54991   0.73654   Biso      1.000     O          -0.461635           
         O6        1.0000    0.58813   0.83173   0.41103   Biso      1.000     O          -0.6442060000000001           
         O7        1.0000    0.68839   0.08845   0.41488   Biso      1.000     O          -0.695969           
         O8        1.0000    0.75852   0.92166   0.30270   Biso      1.000     O          -0.799475           
         O9        1.0000    0.31015   0.89939   0.40296   Biso      1.000     O          -0.676625           
         O10       1.0000    0.40836   0.15602   0.40789   Biso      1.000     O          -0.656338           
         O11       1.0000    0.23372   0.05046   0.28944   Biso      1.000     O          -0.795301           
         O12       1.0000    0.54991   0.10191   0.23654   Biso      1.000     O          -0.46166899999999994          
         O13       1.0000    0.16827   0.41187   0.08897   Biso      1.000     O          -0.644181           
         O14       1.0000    0.91155   0.31161   0.08512   Biso      1.000     O          -0.6959489999999999           
         O15       1.0000    0.07834   0.24148   0.19730   Biso      1.000     O          -0.79943  
         O16       1.0000    0.10061   0.68985   0.09704   Biso      1.000     O          -0.6765979999999999           
         O17       1.0000    0.84398   0.59164   0.09211   Biso      1.000     O          -0.656316           
         O18       1.0000    0.92166   0.75852   0.80270   Biso      1.000     O          -0.79943  
         O19       1.0000    0.08845   0.68839   0.91488   Biso      1.000     O          -0.69595  
         O20       1.0000    0.89809   0.45009   0.26346   Biso      1.000     O          -0.461635           
         O21       1.0000    0.45009   0.89809   0.76346   Biso      1.000     O          -0.46166999999999997          
         O22       1.0000    0.76628   0.94954   0.71056   Biso      1.000     O          -0.7953020000000001           
         O23       1.0000    0.59164   0.84398   0.59211   Biso      1.000     O          -0.656339           
         O24       1.0000    0.68985   0.10061   0.59704   Biso      1.000     O          -0.676624           
         O25       1.0000    0.24148   0.07834   0.69730   Biso      1.000     O          -0.799475           
         O26       1.0000    0.31161   0.91155   0.58512   Biso      1.000     O          -0.69597  
         O27       1.0000    0.41187   0.16827   0.58897   Biso      1.000     O          -0.644205           
         O28       1.0000    0.94954   0.76628   0.21056   Biso      1.000     O          -0.795253           
         P1        1.0000    0.35190   0.02634   0.34869   Biso      1.000     P          1.190741  
         P2        1.0000    0.64286   0.95422   0.35641   Biso      1.000     P          1.216977  
         P3        1.0000    0.95422   0.64286   0.85641   Biso      1.000     P          1.216966  
         P4        1.0000    0.97366   0.64810   0.15131   Biso      1.000     P          1.1907290000000001  
         P5        1.0000    0.64810   0.97366   0.65131   Biso      1.000     P          1.190741  
         P6        1.0000    0.35714   0.04578   0.64359   Biso      1.000     P          1.216977  
         P7        1.0000    0.02634   0.35190   0.84869   Biso      1.000     P          1.1907299999999998  
         P8        1.0000    0.04578   0.35714   0.14359   Biso      1.000     P          1.216966  
         Ru1       1.0000    0.11972   0.54646   0.00209   Biso      1.000     Ru          0.981087  
         Ru2       1.0000    0.45354   0.88028   0.49791   Biso      1.000     Ru          0.980973  
         Ru3       1.0000    0.88028   0.45354   0.99791   Biso      1.000     Ru          0.9810840000000001  
         Ru4       1.0000    0.54646   0.11972   0.50209   Biso      1.000     Ru          0.9809680000000001 