
##########################################################################
#               Crystallographic Information Format file
#               Produced by PyCifRW module
#
#  This is a CIF file.  CIF has been adopted by the International
#  Union of Crystallography as the standard for data archiving and
#  transmission.
#
#  For information on this file format, follow the CIF links at
#  http://www.iucr.org
##########################################################################

data_image0

_cell_length_a                          9.6602
_cell_length_b                          9.6602
_cell_length_c                          15.625
_cell_angle_alpha                       92.9053
_cell_angle_beta                        92.9053
_cell_angle_gamma                       99.1062
_symmetry_space_group_name_H-M          'P 1'
_symmetry_int_tables_number             1
loop_
  _symmetry_equiv_pos_as_xyz
         'x, y, z' 
loop_
  _atom_site_label
  _atom_site_occupancy
  _atom_site_fract_x
  _atom_site_fract_y
  _atom_site_fract_z
  _atom_site_thermal_displace_type
  _atom_site_B_iso_or_equiv
  _atom_site_type_symbol
  _atom_site_charge
         C1        1.0000    0.98460   0.49420   0.78380   Biso      1.000     C          -0.119487           
         C2        1.0000    0.14260   0.55360   0.27800   Biso      1.000     C          -0.452867           
         C3        1.0000    0.01540   0.50580   0.21620   Biso      1.000     C          -0.119487           
         C4        1.0000    0.44640   0.85740   0.22200   Biso      1.000     C          -0.452866           
         C5        1.0000    0.49420   0.98460   0.28380   Biso      1.000     C          -0.119487           
         C6        1.0000    0.85740   0.44640   0.72200   Biso      1.000     C          -0.452867           
         C7        1.0000    0.55360   0.14260   0.77800   Biso      1.000     C          -0.452866           
         C8        1.0000    0.50580   0.01540   0.71620   Biso      1.000     C          -0.119487           
         H1        1.0000    0.58100   0.17500   0.26800   Biso      1.000     H          0.374382  
         H2        1.0000    0.42460   0.77340   0.25450   Biso      1.000     H          0.16938   
         H3        1.0000    0.36230   0.87150   0.18790   Biso      1.000     H          0.16753   
         H4        1.0000    0.52140   0.84540   0.18370   Biso      1.000     H          0.177335  
         H5        1.0000    0.17500   0.58100   0.76800   Biso      1.000     H          0.374382  
         H6        1.0000    0.77340   0.42460   0.75450   Biso      1.000     H          0.16938   
         H7        1.0000    0.87150   0.36230   0.68790   Biso      1.000     H          0.16753   
         H8        1.0000    0.63770   0.12850   0.81210   Biso      1.000     H          0.16753   
         H9        1.0000    0.41900   0.82500   0.73200   Biso      1.000     H          0.374382  
         H10       1.0000    0.57540   0.22660   0.74550   Biso      1.000     H          0.16938   
         H11       1.0000    0.15460   0.47860   0.31630   Biso      1.000     H          0.177335  
         H12       1.0000    0.47860   0.15460   0.81630   Biso      1.000     H          0.177334  
         H13       1.0000    0.22660   0.57540   0.24550   Biso      1.000     H          0.16938   
         H14       1.0000    0.82500   0.41900   0.23200   Biso      1.000     H          0.374382  
         H15       1.0000    0.84540   0.52140   0.68370   Biso      1.000     H          0.177334  
         H16       1.0000    0.12850   0.63770   0.31210   Biso      1.000     H          0.16753   
         Nd1       1.0000    0.01135   0.98865   0.75000   Biso      1.000     Nd          2.237188  
         Nd2       1.0000    0.98865   0.01135   0.25000   Biso      1.000     Nd          2.237189  
         O1        1.0000    0.83150   0.59030   0.91111   Biso      1.000     O          -0.626939           
         O2        1.0000    0.89820   0.30920   0.90175   Biso      1.000     O          -0.681449           
         O3        1.0000    0.15612   0.40748   0.90762   Biso      1.000     O          -0.657135           
         O4        1.0000    0.04863   0.23117   0.78786   Biso      1.000     O          -0.820722           
         O5        1.0000    0.10130   0.54990   0.73400   Biso      1.000     O          -0.486817           
         O6        1.0000    0.59030   0.83150   0.41111   Biso      1.000     O          -0.62694  
         O7        1.0000    0.68940   0.09000   0.41438   Biso      1.000     O          -0.703135           
         O8        1.0000    0.76460   0.92240   0.30144   Biso      1.000     O          -0.838227           
         O9        1.0000    0.30920   0.89820   0.40175   Biso      1.000     O          -0.68145  
         O10       1.0000    0.40748   0.15612   0.40762   Biso      1.000     O          -0.657133           
         O11       1.0000    0.23117   0.04863   0.28786   Biso      1.000     O          -0.820722           
         O12       1.0000    0.54990   0.10130   0.23400   Biso      1.000     O          -0.486817           
         O13       1.0000    0.16850   0.40970   0.08889   Biso      1.000     O          -0.62694  
         O14       1.0000    0.91000   0.31060   0.08562   Biso      1.000     O          -0.703135           
         O15       1.0000    0.07760   0.23540   0.19856   Biso      1.000     O          -0.838227           
         O16       1.0000    0.10180   0.69080   0.09825   Biso      1.000     O          -0.68145  
         O17       1.0000    0.84388   0.59252   0.09238   Biso      1.000     O          -0.657133           
         O18       1.0000    0.92240   0.76460   0.80144   Biso      1.000     O          -0.838227           
         O19       1.0000    0.09000   0.68940   0.91438   Biso      1.000     O          -0.703137           
         O20       1.0000    0.89870   0.45010   0.26600   Biso      1.000     O          -0.486817           
         O21       1.0000    0.45010   0.89870   0.76600   Biso      1.000     O          -0.486818           
         O22       1.0000    0.76883   0.95137   0.71214   Biso      1.000     O          -0.820722           
         O23       1.0000    0.59252   0.84388   0.59238   Biso      1.000     O          -0.657135           
         O24       1.0000    0.69080   0.10180   0.59825   Biso      1.000     O          -0.681448           
         O25       1.0000    0.23540   0.07760   0.69856   Biso      1.000     O          -0.838227           
         O26       1.0000    0.31060   0.91000   0.58562   Biso      1.000     O          -0.703137           
         O27       1.0000    0.40970   0.16850   0.58889   Biso      1.000     O          -0.626939           
         O28       1.0000    0.95137   0.76883   0.21214   Biso      1.000     O          -0.820722           
         P1        1.0000    0.34995   0.02509   0.34738   Biso      1.000     P          1.22043   
         P2        1.0000    0.64469   0.95511   0.35576   Biso      1.000     P          1.181713  
         P3        1.0000    0.95511   0.64469   0.85576   Biso      1.000     P          1.181713  
         P4        1.0000    0.97491   0.65005   0.15262   Biso      1.000     P          1.22043   
         P5        1.0000    0.65005   0.97491   0.65262   Biso      1.000     P          1.22043   
         P6        1.0000    0.35531   0.04489   0.64424   Biso      1.000     P          1.181714  
         P7        1.0000    0.02509   0.34995   0.84738   Biso      1.000     P          1.22043   
         P8        1.0000    0.04489   0.35531   0.14424   Biso      1.000     P          1.181713  
         Ru1       1.0000    0.12039   0.54603   0.00221   Biso      1.000     Ru          0.977415  
         Ru2       1.0000    0.45397   0.87961   0.49779   Biso      1.000     Ru          0.977417  
         Ru3       1.0000    0.87961   0.45397   0.99779   Biso      1.000     Ru          0.977415  
         Ru4       1.0000    0.54603   0.12039   0.50221   Biso      1.000     Ru          0.977412 