
##########################################################################
#               Crystallographic Information Format file
#               Produced by PyCifRW module
#
#  This is a CIF file.  CIF has been adopted by the International
#  Union of Crystallography as the standard for data archiving and
#  transmission.
#
#  For information on this file format, follow the CIF links at
#  http://www.iucr.org
##########################################################################

data_image0

_cell_length_a                          11.1116
_cell_length_b                          12.6229
_cell_length_c                          17.8
_cell_angle_alpha                       88.568
_cell_angle_beta                        83.833
_cell_angle_gamma                       70.167
_symmetry_space_group_name_H-M          'P 1'
_symmetry_int_tables_number             1
loop_
  _symmetry_equiv_pos_as_xyz
         'x, y, z' 
loop_
  _atom_site_label
  _atom_site_occupancy
  _atom_site_fract_x
  _atom_site_fract_y
  _atom_site_fract_z
  _atom_site_thermal_displace_type
  _atom_site_B_iso_or_equiv
  _atom_site_type_symbol
  _atom_site_charge
         C1        1.0000    0.95050   0.46790   0.87020   Biso      1.000     C          -0.11059100000000001          
         C2        1.0000    0.67840   0.30010   0.32260   Biso      1.000     C          -0.180296           
         C3        1.0000    0.60580   0.23450   0.59550   Biso      1.000     C          0.65789   
         C4        1.0000    0.51250   0.03740   0.47270   Biso      1.000     C          0.087155  
         C5        1.0000    0.54360   0.06360   0.62290   Biso      1.000     C          -0.11141400000000001          
         C6        1.0000    0.50450   0.97820   0.60260   Biso      1.000     C          -0.146025           
         C7        1.0000    0.56460   0.13980   0.57010   Biso      1.000     C          -0.029294999999999998         
         C8        1.0000    0.55010   0.12680   0.49590   Biso      1.000     C          -0.170518           
         C9        1.0000    0.80220   0.35440   0.88850   Biso      1.000     C          0.67211   
         C10       1.0000    0.96270   0.47640   0.02520   Biso      1.000     C          0.08922100000000001           
         C11       1.0000    0.02860   0.51870   0.89740   Biso      1.000     C          -0.150611           
         C12       1.0000    0.44990   0.87320   0.50410   Biso      1.000     C          -0.170524           
         C13       1.0000    0.87970   0.41810   0.91930   Biso      1.000     C          -0.02818  
         C14       1.0000    0.88520   0.42360   0.99480   Biso      1.000     C          -0.172424           
         C15       1.0000    0.52110   0.18450   0.83700   Biso      1.000     C          0.6197729999999999  
         C16       1.0000    0.87370   0.41380   0.64140   Biso      1.000     C          0.619769  
         C17       1.0000    0.17470   0.25250   0.73190   Biso      1.000     C          0.090101  
         C18       1.0000    0.23490   0.33630   0.73300   Biso      1.000     C          0.085671  
         C19       1.0000    0.17590   0.44160   0.70090   Biso      1.000     C          -0.140587           
         C20       1.0000    0.06240   0.46560   0.67170   Biso      1.000     C          -0.11523699999999999          
         C21       1.0000    0.00000   0.38610   0.67320   Biso      1.000     C          -0.011856           
         C22       1.0000    0.05520   0.28180   0.70240   Biso      1.000     C          -0.14562999999999998          
         C23       1.0000    0.23380   0.14710   0.76330   Biso      1.000     C          -0.13560999999999998          
         C24       1.0000    0.34500   0.12450   0.79590   Biso      1.000     C          -0.11170899999999999          
         C25       1.0000    0.60680   0.37440   0.27470   Biso      1.000     C          -0.023291           
         C26       1.0000    0.40520   0.20700   0.79720   Biso      1.000     C          -0.013077000000000002         
         C27       1.0000    0.64090   0.35930   0.19610   Biso      1.000     C          -0.11524300000000001          
         C28       1.0000    0.92930   0.10070   0.19000   Biso      1.000     C          -0.172896           
         C29       1.0000    0.97140   0.48130   0.10260   Biso      1.000     C          -0.150617           
         C30       1.0000    0.04950   0.53210   0.12980   Biso      1.000     C          -0.11058399999999999          
         C31       1.0000    0.12030   0.58190   0.08070   Biso      1.000     C          -0.02818  
         C32       1.0000    0.11480   0.57640   0.00520   Biso      1.000     C          -0.172424           
         C33       1.0000    0.47890   0.81550   0.16300   Biso      1.000     C          0.6197729999999999  
         C34       1.0000    0.12630   0.58620   0.35860   Biso      1.000     C          0.619769  
         C35       1.0000    0.82530   0.74750   0.26810   Biso      1.000     C          0.090101  
         C36       1.0000    0.76510   0.66370   0.26700   Biso      1.000     C          0.08567000000000001           
         C37       1.0000    0.82410   0.55840   0.29910   Biso      1.000     C          -0.140587           
         C38       1.0000    0.93760   0.53440   0.32830   Biso      1.000     C          -0.11523699999999999          
         C39       1.0000    0.00000   0.61390   0.32680   Biso      1.000     C          -0.011856           
         C40       1.0000    0.94480   0.71820   0.29760   Biso      1.000     C          -0.14562999999999998          
         C41       1.0000    0.76620   0.85290   0.23670   Biso      1.000     C          -0.13560999999999998          
         C42       1.0000    0.65500   0.87550   0.20410   Biso      1.000     C          -0.11170899999999999          
         C43       1.0000    0.59480   0.79300   0.20280   Biso      1.000     C          -0.013077000000000002         
         C44       1.0000    0.64810   0.69140   0.23430   Biso      1.000     C          -0.142628           
         C45       1.0000    0.49100   0.47290   0.30460   Biso      1.000     C          0.6559689999999999  
         C46       1.0000    0.11630   0.92830   0.20890   Biso      1.000     C          0.662515  
         C47       1.0000    0.81960   0.19260   0.21700   Biso      1.000     C          0.083258  
         C48       1.0000    0.78710   0.20800   0.29540   Biso      1.000     C          0.084402  
         C49       1.0000    0.86330   0.13100   0.34410   Biso      1.000     C          -0.153319           
         C50       1.0000    0.96620   0.04270   0.31590   Biso      1.000     C          -0.106564           
         C51       1.0000    0.00190   0.02610   0.23780   Biso      1.000     C          -0.021759           
         C52       1.0000    0.74320   0.27010   0.16820   Biso      1.000     C          -0.16204100000000002          
         C53       1.0000    0.35190   0.30860   0.76570   Biso      1.000     C          -0.142628           
         C54       1.0000    0.50900   0.52710   0.69540   Biso      1.000     C          0.6559689999999999  
         C55       1.0000    0.88370   0.07170   0.79110   Biso      1.000     C          0.662515  
         C56       1.0000    0.39420   0.76550   0.40450   Biso      1.000     C          0.6578890000000001  
         C57       1.0000    0.48750   0.96260   0.52730   Biso      1.000     C          0.087155  
         C58       1.0000    0.45640   0.93640   0.37710   Biso      1.000     C          -0.11141400000000001          
         C59       1.0000    0.49550   0.02180   0.39740   Biso      1.000     C          -0.146025           
         C60       1.0000    0.43540   0.86020   0.42990   Biso      1.000     C          -0.029289999999999997         
         C61       1.0000    0.03730   0.52360   0.97480   Biso      1.000     C          0.08922200000000001           
         C62       1.0000    0.32160   0.69990   0.67740   Biso      1.000     C          -0.180296           
         C63       1.0000    0.39320   0.62560   0.72530   Biso      1.000     C          -0.023292           
         C64       1.0000    0.19780   0.64560   0.11150   Biso      1.000     C          0.6721090000000001  
         C65       1.0000    0.25680   0.72990   0.83180   Biso      1.000     C          -0.162052           
         C66       1.0000    0.07070   0.89930   0.81000   Biso      1.000     C          -0.172896           
         C67       1.0000    0.99810   0.97390   0.76220   Biso      1.000     C          -0.021758           
         C68       1.0000    0.03380   0.95730   0.68410   Biso      1.000     C          -0.106577           
         C69       1.0000    0.35910   0.64070   0.80390   Biso      1.000     C          -0.11523199999999999          
         C70       1.0000    0.21290   0.79200   0.70460   Biso      1.000     C          0.0844    
         C71       1.0000    0.18040   0.80740   0.78300   Biso      1.000     C          0.083259  
         C72       1.0000    0.13670   0.86900   0.65590   Biso      1.000     C          -0.153306           
         H1        1.0000    0.83640   0.39160   0.02740   Biso      1.000     H          0.11585   
         H2        1.0000    0.21560   0.49580   0.69970   Biso      1.000     H          0.11019000000000001           
         H3        1.0000    0.02540   0.53570   0.65040   Biso      1.000     H          0.119327  
         H4        1.0000    0.01310   0.22930   0.70290   Biso      1.000     H          0.128708  
         H5        1.0000    0.19640   0.09160   0.76170   Biso      1.000     H          0.114962  
         H6        1.0000    0.38170   0.05460   0.81750   Biso      1.000     H          0.11788   
         H7        1.0000    0.15690   0.85940   0.60390   Biso      1.000     H          0.11666800000000001           
         H8        1.0000    0.94480   0.46670   0.81850   Biso      1.000     H          0.10599700000000001           
         H9        1.0000    0.04770   0.90910   0.86180   Biso      1.000     H          0.120755  
         H10       1.0000    0.23690   0.73990   0.88380   Biso      1.000     H          0.10838699999999998           
         H11       1.0000    0.40710   0.58920   0.83680   Biso      1.000     H          0.12173800000000001           
         H12       1.0000    0.34450   0.69000   0.62560   Biso      1.000     H          0.116388  
         H13       1.0000    0.39320   0.36160   0.76570   Biso      1.000     H          0.126352  
         H14       1.0000    0.98560   0.00810   0.65080   Biso      1.000     H          0.119929  
         H15       1.0000    0.56520   0.17730   0.46030   Biso      1.000     H          0.121923  
         H16       1.0000    0.48890   0.92940   0.63930   Biso      1.000     H          0.11731   
         H17       1.0000    0.44360   0.92900   0.32700   Biso      1.000     H          0.112884  
         H18       1.0000    0.51110   0.07060   0.36070   Biso      1.000     H          0.11731   
         H19       1.0000    0.43480   0.82270   0.53970   Biso      1.000     H          0.121923  
         H20       1.0000    0.92360   0.44970   0.13620   Biso      1.000     H          0.11374400000000001           
         H21       1.0000    0.05520   0.53330   0.18150   Biso      1.000     H          0.10599700000000001           
         H22       1.0000    0.16360   0.60840   0.97260   Biso      1.000     H          0.11585   
         H23       1.0000    0.78440   0.50420   0.30030   Biso      1.000     H          0.11019000000000001           
         H24       1.0000    0.97460   0.46430   0.34960   Biso      1.000     H          0.119327  
         H25       1.0000    0.07640   0.55030   0.86380   Biso      1.000     H          0.11374300000000001           
         H26       1.0000    0.98690   0.77070   0.29710   Biso      1.000     H          0.128708  
         H27       1.0000    0.61830   0.94540   0.18250   Biso      1.000     H          0.11788   
         H28       1.0000    0.60680   0.63840   0.23430   Biso      1.000     H          0.126352  
         H29       1.0000    0.84310   0.14060   0.39610   Biso      1.000     H          0.11666800000000001           
         H30       1.0000    0.01440   0.99190   0.34920   Biso      1.000     H          0.11992799999999999           
         H31       1.0000    0.95230   0.09090   0.13820   Biso      1.000     H          0.120755  
         H32       1.0000    0.59290   0.41080   0.16320   Biso      1.000     H          0.12173800000000001           
         H33       1.0000    0.65550   0.31000   0.37440   Biso      1.000     H          0.116388  
         H34       1.0000    0.55640   0.07100   0.67300   Biso      1.000     H          0.11288499999999999           
         H35       1.0000    0.80360   0.90840   0.23830   Biso      1.000     H          0.11496300000000001           
         H36       1.0000    0.76310   0.26010   0.11620   Biso      1.000     H          0.108386  
         Mg1       1.0000    0.70081   0.30106   0.74395   Biso      1.000     Mg          1.422225  
         Mg2       1.0000    0.31351   0.82344   0.07715   Biso      1.000     Mg          1.462507  
         Mg3       1.0000    0.30024   0.57797   0.43733   Biso      1.000     Mg          1.445765  
         Mg4       1.0000    0.29919   0.69894   0.25605   Biso      1.000     Mg          1.422225  
         Mg5       1.0000    0.68649   0.17656   0.92285   Biso      1.000     Mg          1.4625059999999999  
         Mg6       1.0000    0.69976   0.42203   0.56267   Biso      1.000     Mg          1.445765  
         O1        1.0000    0.23650   0.70650   0.06511   Biso      1.000     O          -0.7402770000000001           
         O2        1.0000    0.21600   0.63400   0.17954   Biso      1.000     O          -0.626042           
         O3        1.0000    0.41460   0.74770   0.17132   Biso      1.000     O          -0.749979           
         O4        1.0000    0.44810   0.89520   0.11850   Biso      1.000     O          -0.6287119999999999           
         O5        1.0000    0.19000   0.65230   0.34763   Biso      1.000     O          -0.735106           
         O6        1.0000    0.16290   0.50360   0.40050   Biso      1.000     O          -0.62622  
         O7        1.0000    0.43830   0.54340   0.25802   Biso      1.000     O          -0.64008  
         O8        1.0000    0.45730   0.47600   0.37410   Biso      1.000     O          -0.713454           
         O9        1.0000    0.15990   0.92980   0.14110   Biso      1.000     O          -0.719862           
         O10       1.0000    0.15950   0.85310   0.25490   Biso      1.000     O          -0.6386930000000001           
         O11       1.0000    0.61550   0.30660   0.54630   Biso      1.000     O          -0.732571           
         O12       1.0000    0.76350   0.29350   0.93489   Biso      1.000     O          -0.7402770000000001           
         O13       1.0000    0.37310   0.76450   0.33820   Biso      1.000     O          -0.625526           
         O14       1.0000    0.78400   0.36600   0.82046   Biso      1.000     O          -0.626042           
         O15       1.0000    0.58540   0.25230   0.82868   Biso      1.000     O          -0.749979           
         O16       1.0000    0.55190   0.10480   0.88150   Biso      1.000     O          -0.6287119999999999           
         O17       1.0000    0.81000   0.34770   0.65237   Biso      1.000     O          -0.735106           
         O18       1.0000    0.83710   0.49640   0.59950   Biso      1.000     O          -0.62622  
         O19       1.0000    0.56170   0.45660   0.74198   Biso      1.000     O          -0.64008  
         O20       1.0000    0.54270   0.52400   0.62590   Biso      1.000     O          -0.713454           
         O21       1.0000    0.84010   0.07020   0.85890   Biso      1.000     O          -0.719862           
         O22       1.0000    0.84050   0.14690   0.74510   Biso      1.000     O          -0.6386930000000001           
         O23       1.0000    0.62690   0.23550   0.66180   Biso      1.000     O          -0.625525           
         O24       1.0000    0.38450   0.69340   0.45370   Biso      1.000     O          -0.732571 