
##########################################################################
#               Crystallographic Information Format file
#               Produced by PyCifRW module
#
#  This is a CIF file.  CIF has been adopted by the International
#  Union of Crystallography as the standard for data archiving and
#  transmission.
#
#  For information on this file format, follow the CIF links at
#  http://www.iucr.org
##########################################################################

data_image0

_cell_length_a                          7.7399
_cell_length_b                          9.951
_cell_length_c                          15.091
_cell_angle_alpha                       90
_cell_angle_beta                        98.51
_cell_angle_gamma                       90
_symmetry_space_group_name_H-M          'P 1'
_symmetry_int_tables_number             1
loop_
  _symmetry_equiv_pos_as_xyz
         'x, y, z' 
loop_
  _atom_site_label
  _atom_site_occupancy
  _atom_site_fract_x
  _atom_site_fract_y
  _atom_site_fract_z
  _atom_site_thermal_displace_type
  _atom_site_B_iso_or_equiv
  _atom_site_type_symbol
  _atom_site_charge
         C1        1.0000    0.70470   0.43160   0.42220   Biso      1.000     C          -0.075074           
         C2        1.0000    0.20470   0.06840   0.92220   Biso      1.000     C          -0.075074           
         C3        1.0000    0.17490   0.13090   0.00077   Biso      1.000     C          -0.077755           
         C4        1.0000    0.22630   0.06640   0.08189   Biso      1.000     C          0.067013  
         C5        1.0000    0.32960   0.88600   0.01184   Biso      1.000     C          0.077007  
         C6        1.0000    0.28010   0.94125   0.92744   Biso      1.000     C          -0.081894           
         C7        1.0000    0.30880   0.86380   0.84597   Biso      1.000     C          0.664859  
         C8        1.0000    0.95690   0.96797   0.53829   Biso      1.000     C          0.509945  
         C9        1.0000    0.41140   0.76630   0.50131   Biso      1.000     C          0.701751  
         C10       1.0000    0.29530   0.56840   0.57780   Biso      1.000     C          -0.075074           
         C11       1.0000    0.32510   0.63090   0.49923   Biso      1.000     C          -0.077755           
         C12       1.0000    0.27370   0.56640   0.41811   Biso      1.000     C          0.067013  
         C13       1.0000    0.17040   0.38600   0.48816   Biso      1.000     C          0.077007  
         C14       1.0000    0.21990   0.44125   0.57256   Biso      1.000     C          -0.081894           
         C15       1.0000    0.19120   0.36380   0.65403   Biso      1.000     C          0.664859  
         C16       1.0000    0.80880   0.63620   0.34597   Biso      1.000     C          0.664859  
         C17       1.0000    0.78010   0.55875   0.42744   Biso      1.000     C          -0.081895           
         C18       1.0000    0.82960   0.61400   0.51184   Biso      1.000     C          0.077008  
         C19       1.0000    0.72630   0.43360   0.58189   Biso      1.000     C          0.067013  
         C20       1.0000    0.67490   0.36910   0.50077   Biso      1.000     C          -0.077755           
         C21       1.0000    0.58860   0.23370   0.49869   Biso      1.000     C          0.701751  
         C22       1.0000    0.04310   0.03203   0.46171   Biso      1.000     C          0.509945  
         C23       1.0000    0.69120   0.13620   0.15403   Biso      1.000     C          0.664859  
         C24       1.0000    0.71990   0.05875   0.07256   Biso      1.000     C          -0.081895           
         C25       1.0000    0.67040   0.11400   0.98816   Biso      1.000     C          0.077008  
         C26       1.0000    0.77370   0.93360   0.91811   Biso      1.000     C          0.067013  
         C27       1.0000    0.82510   0.86910   0.99923   Biso      1.000     C          -0.077755           
         C28       1.0000    0.79530   0.93160   0.07780   Biso      1.000     C          -0.075074           
         C29       1.0000    0.91140   0.73370   0.00131   Biso      1.000     C          0.701751  
         C30       1.0000    0.45690   0.53203   0.03829   Biso      1.000     C          0.509945  
         C31       1.0000    0.08860   0.26630   0.99869   Biso      1.000     C          0.701751  
         C32       1.0000    0.54310   0.46797   0.96171   Biso      1.000     C          0.509945  
         Ce1       1.0000    0.35723   0.04340   0.64044   Biso      1.000     Ce          2.106679  
         Ce2       1.0000    0.14277   0.54340   0.85956   Biso      1.000     Ce          2.106679  
         Ce3       1.0000    0.64277   0.95660   0.35956   Biso      1.000     Ce          2.106679  
         Ce4       1.0000    0.85723   0.45660   0.14044   Biso      1.000     Ce          2.106679  
         H1        1.0000    0.79500   0.89300   0.86120   Biso      1.000     H          0.097633  
         H2        1.0000    0.11800   0.30200   0.48220   Biso      1.000     H          0.100442  
         H3        1.0000    0.32500   0.61000   0.63160   Biso      1.000     H          0.132254  
         H4        1.0000    0.29500   0.60700   0.36120   Biso      1.000     H          0.097633  
         H5        1.0000    0.38200   0.80200   0.01780   Biso      1.000     H          0.100442  
         H6        1.0000    0.82500   0.89000   0.13160   Biso      1.000     H          0.132254  
         H7        1.0000    0.20500   0.10700   0.13880   Biso      1.000     H          0.097633  
         H8        1.0000    0.88200   0.69800   0.51780   Biso      1.000     H          0.100442  
         H9        1.0000    0.67500   0.39000   0.36840   Biso      1.000     H          0.132254  
         H10       1.0000    0.70500   0.39300   0.63880   Biso      1.000     H          0.097633  
         H11       1.0000    0.17500   0.11000   0.86840   Biso      1.000     H          0.132254  
         H12       1.0000    0.61800   0.19800   0.98220   Biso      1.000     H          0.100442  
         N1        1.0000    0.19320   0.44597   0.41179   Biso      1.000     N          -0.290632           
         N2        1.0000    0.30680   0.94597   0.08821   Biso      1.000     N          -0.290632           
         N3        1.0000    0.80680   0.55403   0.58821   Biso      1.000     N          -0.290632           
         N4        1.0000    0.69320   0.05403   0.91179   Biso      1.000     N          -0.290632           
         O1        1.0000    0.80390   0.57577   0.27315   Biso      1.000     O          -0.685462           
         O2        1.0000    0.52810   0.19738   0.56692   Biso      1.000     O          -0.698231           
         O3        1.0000    0.58340   0.16592   0.42818   Biso      1.000     O          -0.678145           
         O4        1.0000    0.94690   0.05279   0.38873   Biso      1.000     O          -0.587673           
         O5        1.0000    0.97190   0.69738   0.93308   Biso      1.000     O          -0.698231           
         O6        1.0000    0.66351   0.26139   0.14493   Biso      1.000     O          -0.67507  
         O7        1.0000    0.69610   0.07577   0.22685   Biso      1.000     O          -0.685462           
         O8        1.0000    0.83649   0.76139   0.35507   Biso      1.000     O          -0.67507  
         O9        1.0000    0.91660   0.66592   0.07182   Biso      1.000     O          -0.678145           
         O10       1.0000    0.20245   0.05984   0.47945   Biso      1.000     O          -0.607646           
         O11       1.0000    0.70245   0.44016   0.97945   Biso      1.000     O          -0.607646           
         O12       1.0000    0.47190   0.80262   0.43308   Biso      1.000     O          -0.698231           
         O13       1.0000    0.08340   0.33408   0.92818   Biso      1.000     O          -0.678145           
         O14       1.0000    0.02810   0.30262   0.06692   Biso      1.000     O          -0.698231           
         O15       1.0000    0.30390   0.92423   0.77315   Biso      1.000     O          -0.685462           
         O16       1.0000    0.33649   0.73861   0.85507   Biso      1.000     O          -0.67507  
         O17       1.0000    0.79755   0.94016   0.52055   Biso      1.000     O          -0.607646           
         O18       1.0000    0.05310   0.94721   0.61127   Biso      1.000     O          -0.587673           
         O19       1.0000    0.41660   0.83408   0.57182   Biso      1.000     O          -0.678145           
         O20       1.0000    0.19610   0.42423   0.72685   Biso      1.000     O          -0.685462           
         O21       1.0000    0.16351   0.23861   0.64493   Biso      1.000     O          -0.67507  
         O22       1.0000    0.55310   0.55279   0.11127   Biso      1.000     O          -0.587673           
         O23       1.0000    0.44690   0.44721   0.88873   Biso      1.000     O          -0.587673           
         O24       1.0000    0.29755   0.55984   0.02055   Biso      1.000     O          -0.607646 