
##########################################################################
#               Crystallographic Information Format file
#               Produced by PyCifRW module
#
#  This is a CIF file.  CIF has been adopted by the International
#  Union of Crystallography as the standard for data archiving and
#  transmission.
#
#  For information on this file format, follow the CIF links at
#  http://www.iucr.org
##########################################################################

data_image0

_cell_length_a                          16.1871
_cell_length_b                          16.3069
_cell_length_c                          9.9762
_cell_angle_alpha                       90
_cell_angle_beta                        114.628
_cell_angle_gamma                       90
_symmetry_space_group_name_H-M          'P 1'
_symmetry_int_tables_number             1
loop_
  _symmetry_equiv_pos_as_xyz
         'x, y, z' 
loop_
  _atom_site_label
  _atom_site_occupancy
  _atom_site_fract_x
  _atom_site_fract_y
  _atom_site_fract_z
  _atom_site_thermal_displace_type
  _atom_site_B_iso_or_equiv
  _atom_site_type_symbol
  _atom_site_charge
         C1        1.0000    0.42040   0.15280   0.33370   Biso      1.000     C          0.08747100000000001           
         C2        1.0000    0.05850   0.84190   0.50390   Biso      1.000     C          0.547355  
         C3        1.0000    0.69750   0.48755   0.89650   Biso      1.000     C          0.55108   
         C4        1.0000    0.51880   0.71420   0.58620   Biso      1.000     C          0.025674000000000002          
         C5        1.0000    0.99310   0.29872   0.91610   Biso      1.000     C          -0.142867           
         C6        1.0000    0.50690   0.79872   0.58390   Biso      1.000     C          -0.142868           
         C7        1.0000    0.51880   0.28580   0.08620   Biso      1.000     C          0.025674000000000002          
         C8        1.0000    0.57960   0.84720   0.66630   Biso      1.000     C          0.087475  
         C9        1.0000    0.92040   0.34720   0.83370   Biso      1.000     C          0.087475  
         C10       1.0000    0.57960   0.15280   0.16630   Biso      1.000     C          0.08747100000000001           
         C11       1.0000    0.30250   0.48755   0.60350   Biso      1.000     C          0.55108   
         C12       1.0000    0.94150   0.84190   0.99610   Biso      1.000     C          0.5473560000000001  
         C13       1.0000    0.60300   0.31810   0.17510   Biso      1.000     C          -0.1537   
         C14       1.0000    0.17260   0.76580   0.25590   Biso      1.000     C          0.093348  
         C15       1.0000    0.42040   0.84720   0.83370   Biso      1.000     C          0.08747200000000001           
         C16       1.0000    0.49310   0.79872   0.91610   Biso      1.000     C          -0.14286300000000002          
         C17       1.0000    0.10300   0.81810   0.17510   Biso      1.000     C          -0.153699           
         C18       1.0000    0.48120   0.71420   0.91380   Biso      1.000     C          0.025673  
         C19       1.0000    0.39700   0.68190   0.82490   Biso      1.000     C          -0.153701           
         C20       1.0000    0.01880   0.78580   0.08620   Biso      1.000     C          0.025675  
         C21       1.0000    0.32740   0.73420   0.74410   Biso      1.000     C          0.093351  
         C22       1.0000    0.67260   0.26580   0.25590   Biso      1.000     C          0.093351  
         C23       1.0000    0.55850   0.65810   0.00390   Biso      1.000     C          0.5473560000000001  
         C24       1.0000    0.19750   0.01245   0.39650   Biso      1.000     C          0.551081  
         C25       1.0000    0.00690   0.70128   0.08390   Biso      1.000     C          -0.142868           
         C26       1.0000    0.07960   0.65280   0.16630   Biso      1.000     C          0.087476  
         C27       1.0000    0.60300   0.68190   0.67510   Biso      1.000     C          -0.1537   
         C28       1.0000    0.44150   0.34190   0.99610   Biso      1.000     C          0.5473560000000001  
         C29       1.0000    0.82740   0.76580   0.24410   Biso      1.000     C          0.093348  
         C30       1.0000    0.89700   0.81810   0.32490   Biso      1.000     C          -0.153699           
         C31       1.0000    0.30250   0.51245   0.10350   Biso      1.000     C          0.551081  
         C32       1.0000    0.49310   0.20128   0.41610   Biso      1.000     C          -0.14286300000000002          
         C33       1.0000    0.94150   0.15810   0.49610   Biso      1.000     C          0.547355  
         C34       1.0000    0.48120   0.28580   0.41380   Biso      1.000     C          0.025673  
         C35       1.0000    0.39700   0.31810   0.32490   Biso      1.000     C          -0.1537   
         C36       1.0000    0.69750   0.51245   0.39650   Biso      1.000     C          0.55108   
         C37       1.0000    0.32740   0.26580   0.24410   Biso      1.000     C          0.093351  
         C38       1.0000    0.17260   0.23420   0.75590   Biso      1.000     C          0.093348  
         C39       1.0000    0.55850   0.34190   0.50390   Biso      1.000     C          0.5473560000000001  
         C40       1.0000    0.19750   0.98755   0.89650   Biso      1.000     C          0.551081  
         C41       1.0000    0.05850   0.15810   0.00390   Biso      1.000     C          0.5473560000000001  
         C42       1.0000    0.01880   0.21420   0.58620   Biso      1.000     C          0.025674000000000002          
         C43       1.0000    0.10300   0.18190   0.67510   Biso      1.000     C          -0.153697           
         C44       1.0000    0.00690   0.29872   0.58390   Biso      1.000     C          -0.142869           
         C45       1.0000    0.98120   0.78580   0.41380   Biso      1.000     C          0.025675  
         C46       1.0000    0.67260   0.73420   0.75590   Biso      1.000     C          0.093351  
         C47       1.0000    0.99310   0.70128   0.41610   Biso      1.000     C          -0.142868           
         C48       1.0000    0.98120   0.21420   0.91380   Biso      1.000     C          0.025673  
         C49       1.0000    0.92040   0.65280   0.33370   Biso      1.000     C          0.087475  
         C50       1.0000    0.80250   0.01245   0.10350   Biso      1.000     C          0.55108   
         C51       1.0000    0.44150   0.65810   0.49610   Biso      1.000     C          0.5473560000000001  
         C52       1.0000    0.50690   0.20128   0.08390   Biso      1.000     C          -0.14286500000000002          
         C53       1.0000    0.07960   0.34720   0.66630   Biso      1.000     C          0.087475  
         C54       1.0000    0.82740   0.23420   0.74410   Biso      1.000     C          0.093348  
         C55       1.0000    0.89700   0.18190   0.82490   Biso      1.000     C          -0.153697           
         C56       1.0000    0.80250   0.98755   0.60350   Biso      1.000     C          0.55108   
         H1        1.0000    0.57150   0.09630   0.16350   Biso      1.000     H          0.097719  
         H2        1.0000    0.61240   0.37450   0.18000   Biso      1.000     H          0.130996  
         H3        1.0000    0.72890   0.28790   0.31600   Biso      1.000     H          0.0988    
         H4        1.0000    0.45060   0.17800   0.02730   Biso      1.000     H          0.129155  
         H5        1.0000    0.40030   0.40930   0.66190   Biso      1.000     H          0.359694  
         H6        1.0000    0.89920   0.96580   0.54380   Biso      1.000     H          0.367463  
         H7        1.0000    0.22890   0.21210   0.81600   Biso      1.000     H          0.0988    
         H8        1.0000    0.11240   0.12550   0.68000   Biso      1.000     H          0.130996  
         H9        1.0000    0.95060   0.32200   0.52730   Biso      1.000     H          0.129156  
         H10       1.0000    0.07150   0.40370   0.66350   Biso      1.000     H          0.097718  
         H11       1.0000    0.89920   0.03420   0.04380   Biso      1.000     H          0.367463  
         H12       1.0000    0.90030   0.09070   0.16190   Biso      1.000     H          0.359694  
         H13       1.0000    0.72890   0.71210   0.81600   Biso      1.000     H          0.0988    
         H14       1.0000    0.61240   0.62550   0.68000   Biso      1.000     H          0.130996  
         H15       1.0000    0.45060   0.82200   0.52730   Biso      1.000     H          0.129156  
         H16       1.0000    0.57150   0.90370   0.66350   Biso      1.000     H          0.097718  
         H17       1.0000    0.39920   0.46580   0.54380   Biso      1.000     H          0.367463  
         H18       1.0000    0.22890   0.78790   0.31600   Biso      1.000     H          0.0988    
         H19       1.0000    0.11240   0.87450   0.18000   Biso      1.000     H          0.130996  
         H20       1.0000    0.95060   0.67800   0.02730   Biso      1.000     H          0.129155  
         H21       1.0000    0.07150   0.59630   0.16350   Biso      1.000     H          0.097719  
         H22       1.0000    0.90030   0.90930   0.66190   Biso      1.000     H          0.359694  
         H23       1.0000    0.60080   0.53420   0.45620   Biso      1.000     H          0.367464  
         H24       1.0000    0.59970   0.59070   0.33810   Biso      1.000     H          0.359694  
         H25       1.0000    0.59970   0.40930   0.83810   Biso      1.000     H          0.359695  
         H26       1.0000    0.88760   0.87450   0.32000   Biso      1.000     H          0.130997  
         H27       1.0000    0.77110   0.78790   0.18400   Biso      1.000     H          0.098801  
         H28       1.0000    0.27110   0.71210   0.68400   Biso      1.000     H          0.098801  
         H29       1.0000    0.38760   0.62550   0.82000   Biso      1.000     H          0.130996  
         H30       1.0000    0.54940   0.82200   0.97270   Biso      1.000     H          0.129156  
         H31       1.0000    0.10080   0.96580   0.95620   Biso      1.000     H          0.367464  
         H32       1.0000    0.42850   0.90370   0.83650   Biso      1.000     H          0.097719  
         H33       1.0000    0.09970   0.90930   0.83810   Biso      1.000     H          0.359695  
         H34       1.0000    0.39920   0.53420   0.04380   Biso      1.000     H          0.367464  
         H35       1.0000    0.09970   0.09070   0.33810   Biso      1.000     H          0.359695  
         H36       1.0000    0.10080   0.03420   0.45620   Biso      1.000     H          0.367464  
         H37       1.0000    0.92850   0.59630   0.33650   Biso      1.000     H          0.097719  
         H38       1.0000    0.04940   0.67800   0.47270   Biso      1.000     H          0.129157  
         H39       1.0000    0.92850   0.40370   0.83650   Biso      1.000     H          0.097719  
         H40       1.0000    0.04940   0.32200   0.97270   Biso      1.000     H          0.129156  
         H41       1.0000    0.88760   0.12550   0.82000   Biso      1.000     H          0.130996  
         H42       1.0000    0.77110   0.21210   0.68400   Biso      1.000     H          0.098801  
         H43       1.0000    0.60080   0.46580   0.95620   Biso      1.000     H          0.367464  
         H44       1.0000    0.27110   0.28790   0.18400   Biso      1.000     H          0.0988    
         H45       1.0000    0.38760   0.37450   0.32000   Biso      1.000     H          0.130996  
         H46       1.0000    0.54940   0.17800   0.47270   Biso      1.000     H          0.129156  
         H47       1.0000    0.42850   0.09630   0.33650   Biso      1.000     H          0.09772   
         H48       1.0000    0.40030   0.59070   0.16190   Biso      1.000     H          0.359695  
         N1        1.0000    0.74226   0.54886   0.98790   Biso      1.000     N          -0.349048           
         N2        1.0000    0.81316   0.52070   0.85190   Biso      1.000     N          -0.09176799999999999          
         N3        1.0000    0.73977   0.46870   0.81040   Biso      1.000     N          -0.359763           
         N4        1.0000    0.83776   0.68363   0.24880   Biso      1.000     N          -0.20542600000000003          
         N5        1.0000    0.26023   0.53130   0.18960   Biso      1.000     N          -0.359773           
         N6        1.0000    0.81426   0.56762   0.95550   Biso      1.000     N          -0.06641699999999999          
         N7        1.0000    0.81316   0.47930   0.35190   Biso      1.000     N          -0.09176799999999999          
         N8        1.0000    0.75774   0.95114   0.01210   Biso      1.000     N          -0.349043           
         N9        1.0000    0.68574   0.93238   0.04450   Biso      1.000     N          -0.066465           
         N10       1.0000    0.68684   0.97930   0.14810   Biso      1.000     N          -0.091721           
         N11       1.0000    0.76023   0.03130   0.18960   Biso      1.000     N          -0.359768           
         N12       1.0000    0.62380   0.44967   0.89700   Biso      1.000     N          -0.741995           
         N13       1.0000    0.18684   0.47930   0.14810   Biso      1.000     N          -0.09175900000000001          
         N14       1.0000    0.12380   0.94967   0.89700   Biso      1.000     N          -0.7419939999999999           
         N15       1.0000    0.23977   0.96870   0.81040   Biso      1.000     N          -0.359773           
         N16       1.0000    0.31316   0.02070   0.85190   Biso      1.000     N          -0.091758           
         N17       1.0000    0.31426   0.06762   0.95550   Biso      1.000     N          -0.066425           
         N18       1.0000    0.24226   0.04886   0.98790   Biso      1.000     N          -0.349041           
         N19       1.0000    0.33776   0.18363   0.24880   Biso      1.000     N          -0.20542600000000003          
         N20       1.0000    0.16224   0.31637   0.75120   Biso      1.000     N          -0.20542600000000003          
         N21       1.0000    0.66224   0.81637   0.75120   Biso      1.000     N          -0.205425           
         N22       1.0000    0.87620   0.05033   0.10300   Biso      1.000     N          -0.7419939999999999           
         N23       1.0000    0.18574   0.56762   0.54450   Biso      1.000     N          -0.066474           
         N24       1.0000    0.26023   0.46870   0.68960   Biso      1.000     N          -0.359777           
         N25       1.0000    0.73977   0.53130   0.31040   Biso      1.000     N          -0.359763           
         N26       1.0000    0.62380   0.55033   0.39700   Biso      1.000     N          -0.741995           
         N27       1.0000    0.25774   0.45114   0.01210   Biso      1.000     N          -0.349049           
         N28       1.0000    0.74226   0.45114   0.48790   Biso      1.000     N          -0.349049           
         N29       1.0000    0.83776   0.31637   0.74880   Biso      1.000     N          -0.20542600000000003          
         N30       1.0000    0.12380   0.05033   0.39700   Biso      1.000     N          -0.7419939999999999           
         N31       1.0000    0.66224   0.18363   0.25120   Biso      1.000     N          -0.205425           
         N32       1.0000    0.75774   0.04886   0.51210   Biso      1.000     N          -0.349044           
         N33       1.0000    0.68574   0.06762   0.54450   Biso      1.000     N          -0.066465           
         N34       1.0000    0.68684   0.02070   0.64810   Biso      1.000     N          -0.091721           
         N35       1.0000    0.37620   0.44967   0.60300   Biso      1.000     N          -0.7419939999999999           
         N36       1.0000    0.87620   0.94967   0.60300   Biso      1.000     N          -0.7419939999999999           
         N37       1.0000    0.23977   0.03130   0.31040   Biso      1.000     N          -0.359772           
         N38       1.0000    0.31316   0.97930   0.35190   Biso      1.000     N          -0.091758           
         N39       1.0000    0.76023   0.96870   0.68960   Biso      1.000     N          -0.359768           
         N40       1.0000    0.16224   0.68363   0.25120   Biso      1.000     N          -0.205425           
         N41       1.0000    0.18684   0.52070   0.64810   Biso      1.000     N          -0.091711           
         N42       1.0000    0.81426   0.43238   0.45550   Biso      1.000     N          -0.06641699999999999          
         N43       1.0000    0.25774   0.54886   0.51210   Biso      1.000     N          -0.349036           
         N44       1.0000    0.33776   0.81637   0.74880   Biso      1.000     N          -0.20542600000000003          
         N45       1.0000    0.18574   0.43238   0.04450   Biso      1.000     N          -0.06641799999999999          
         N46       1.0000    0.37620   0.55033   0.10300   Biso      1.000     N          -0.7419939999999999           
         N47       1.0000    0.31426   0.93238   0.45550   Biso      1.000     N          -0.066425           
         N48       1.0000    0.24226   0.95114   0.48790   Biso      1.000     N          -0.349041           
         O1        1.0000    0.86491   0.19375   0.42520   Biso      1.000     O          -0.539385           
         O2        1.0000    0.86491   0.80625   0.92520   Biso      1.000     O          -0.539385           
         O3        1.0000    0.95381   0.91627   0.99510   Biso      1.000     O          -0.5305989999999999           
         O4        1.0000    0.45381   0.41627   0.99510   Biso      1.000     O          -0.5305989999999999           
         O5        1.0000    0.13509   0.19375   0.07480   Biso      1.000     O          -0.539385           
         O6        1.0000    0.04619   0.08373   0.00490   Biso      1.000     O          -0.5306   
         O7        1.0000    0.95381   0.08373   0.49510   Biso      1.000     O          -0.5305989999999999           
         O8        1.0000    0.63509   0.30625   0.57480   Biso      1.000     O          -0.539385           
         O9        1.0000    0.63509   0.69375   0.07480   Biso      1.000     O          -0.539385           
         O10       1.0000    0.54619   0.41627   0.50490   Biso      1.000     O          -0.5305989999999999           
         O11       1.0000    0.13509   0.80625   0.57480   Biso      1.000     O          -0.539385           
         O12       1.0000    0.04619   0.91627   0.50490   Biso      1.000     O          -0.5305989999999999           
         O13       1.0000    0.45381   0.58373   0.49510   Biso      1.000     O          -0.5306   
         O14       1.0000    0.36491   0.69375   0.42520   Biso      1.000     O          -0.5393859999999999           
         O15       1.0000    0.54619   0.58373   0.00490   Biso      1.000     O          -0.5305989999999999           
         O16       1.0000    0.36491   0.30625   0.92520   Biso      1.000     O          -0.539385           
         Zn1       1.0000    0.72743   0.39162   0.64975   Biso      1.000     Zn          0.6922050000000001  
         Zn2       1.0000    0.27257   0.60838   0.35025   Biso      1.000     Zn          0.692206  
         Zn3       1.0000    0.77257   0.10838   0.35025   Biso      1.000     Zn          0.6922050000000001  
         Zn4       1.0000    0.22743   0.89162   0.64975   Biso      1.000     Zn          0.6922050000000001  
         Zn5       1.0000    0.72743   0.60838   0.14975   Biso      1.000     Zn          0.692204  
         Zn6       1.0000    0.22743   0.10838   0.14975   Biso      1.000     Zn          0.692204  
         Zn7       1.0000    0.77257   0.89162   0.85025   Biso      1.000     Zn          0.692203  
         Zn8       1.0000    0.27257   0.39162   0.85025   Biso      1.000     Zn          0.692204 