
##########################################################################
#               Crystallographic Information Format file
#               Produced by PyCifRW module
#
#  This is a CIF file.  CIF has been adopted by the International
#  Union of Crystallography as the standard for data archiving and
#  transmission.
#
#  For information on this file format, follow the CIF links at
#  http://www.iucr.org
##########################################################################

data_image0

_cell_length_a                          14.2941
_cell_length_b                          14.2941
_cell_length_c                          14.2941
_cell_angle_alpha                       90
_cell_angle_beta                        90
_cell_angle_gamma                       90
_symmetry_space_group_name_H-M          'P 1'
_symmetry_int_tables_number             1
loop_
  _symmetry_equiv_pos_as_xyz
         'x, y, z' 
loop_
  _atom_site_label
  _atom_site_occupancy
  _atom_site_fract_x
  _atom_site_fract_y
  _atom_site_fract_z
  _atom_site_thermal_displace_type
  _atom_site_B_iso_or_equiv
  _atom_site_type_symbol
  _atom_site_charge
         C1        1.0000    0.34860   0.89440   0.51650   Biso      1.000     C          -0.030917           
         C2        1.0000    0.43910   0.27920   0.87640   Biso      1.000     C          0.62644   
         C3        1.0000    0.01650   0.15140   0.10560   Biso      1.000     C          -0.030916           
         C4        1.0000    0.03170   0.07450   0.16720   Biso      1.000     C          -0.109559           
         C5        1.0000    0.93910   0.22080   0.12360   Biso      1.000     C          0.62644   
         C6        1.0000    0.98350   0.65140   0.39440   Biso      1.000     C          -0.030916           
         C7        1.0000    0.96830   0.57450   0.33280   Biso      1.000     C          -0.109559           
         C8        1.0000    0.48350   0.84860   0.60560   Biso      1.000     C          -0.030916           
         C9        1.0000    0.46830   0.92550   0.66720   Biso      1.000     C          -0.109559           
         C10       1.0000    0.56090   0.77920   0.62360   Biso      1.000     C          0.62644   
         C11       1.0000    0.89440   0.51650   0.34860   Biso      1.000     C          -0.030907           
         C12       1.0000    0.83280   0.53170   0.42550   Biso      1.000     C          -0.10956  
         C13       1.0000    0.87640   0.43910   0.27920   Biso      1.000     C          0.626439  
         C14       1.0000    0.10560   0.01650   0.15140   Biso      1.000     C          -0.030907           
         C15       1.0000    0.16720   0.03170   0.07450   Biso      1.000     C          -0.10956  
         C16       1.0000    0.12360   0.93910   0.22080   Biso      1.000     C          0.626439  
         C17       1.0000    0.39440   0.98350   0.65140   Biso      1.000     C          -0.030908           
         C18       1.0000    0.33280   0.96830   0.57450   Biso      1.000     C          -0.109551           
         C19       1.0000    0.37640   0.06090   0.72080   Biso      1.000     C          0.626439  
         C20       1.0000    0.60560   0.48350   0.84860   Biso      1.000     C          -0.030916           
         C21       1.0000    0.66720   0.46830   0.92550   Biso      1.000     C          -0.109559           
         C22       1.0000    0.62360   0.56090   0.77920   Biso      1.000     C          0.62644   
         C23       1.0000    0.53170   0.42550   0.83280   Biso      1.000     C          -0.10955  
         C24       1.0000    0.51650   0.34860   0.89440   Biso      1.000     C          -0.030918           
         C25       1.0000    0.06090   0.72080   0.37640   Biso      1.000     C          0.62644   
         C26       1.0000    0.27920   0.87640   0.43910   Biso      1.000     C          0.62644   
         C27       1.0000    0.57450   0.33280   0.96830   Biso      1.000     C          -0.109551           
         C28       1.0000    0.72080   0.37640   0.06090   Biso      1.000     C          0.626439  
         C29       1.0000    0.65140   0.39440   0.98350   Biso      1.000     C          -0.030908           
         C30       1.0000    0.42550   0.83280   0.53170   Biso      1.000     C          -0.10955  
         C31       1.0000    0.84860   0.60560   0.48350   Biso      1.000     C          -0.030908           
         C32       1.0000    0.15140   0.10560   0.01650   Biso      1.000     C          -0.030908           
         C33       1.0000    0.07450   0.16720   0.03170   Biso      1.000     C          -0.109551           
         C34       1.0000    0.22080   0.12360   0.93910   Biso      1.000     C          0.626439  
         C35       1.0000    0.92550   0.66720   0.46830   Biso      1.000     C          -0.109551           
         C36       1.0000    0.77920   0.62360   0.56090   Biso      1.000     C          0.626439  
         H1        1.0000    0.99170   0.06410   0.21740   Biso      1.000     H          0.127931  
         H2        1.0000    0.78260   0.49170   0.43590   Biso      1.000     H          0.127931  
         H3        1.0000    0.28260   0.00830   0.56410   Biso      1.000     H          0.12793   
         H4        1.0000    0.49170   0.43590   0.78260   Biso      1.000     H          0.12793   
         H5        1.0000    0.50830   0.93590   0.71740   Biso      1.000     H          0.127931  
         H6        1.0000    0.56410   0.28260   0.00830   Biso      1.000     H          0.12793   
         H7        1.0000    0.06410   0.21740   0.99170   Biso      1.000     H          0.12793   
         H8        1.0000    0.00830   0.56410   0.28260   Biso      1.000     H          0.127931  
         H9        1.0000    0.43590   0.78260   0.49170   Biso      1.000     H          0.12793   
         H10       1.0000    0.71740   0.50830   0.93590   Biso      1.000     H          0.127931  
         H11       1.0000    0.93590   0.71740   0.50830   Biso      1.000     H          0.12793   
         H12       1.0000    0.21740   0.99170   0.06410   Biso      1.000     H          0.127931  
         O1        1.0000    0.19290   0.88550   0.20100   Biso      1.000     O          -0.589502           
         O2        1.0000    0.06740   0.92540   0.28220   Biso      1.000     O          -0.499832           
         O3        1.0000    0.79900   0.69290   0.61450   Biso      1.000     O          -0.589502           
         O4        1.0000    0.29900   0.80710   0.38550   Biso      1.000     O          -0.589502           
         O5        1.0000    0.43260   0.07460   0.78220   Biso      1.000     O          -0.499832           
         O6        1.0000    0.69290   0.61450   0.79900   Biso      1.000     O          -0.589502           
         O7        1.0000    0.56740   0.57460   0.71780   Biso      1.000     O          -0.499832           
         O8        1.0000    0.21780   0.93260   0.42540   Biso      1.000     O          -0.499832           
         O9        1.0000    0.30710   0.11450   0.70100   Biso      1.000     O          -0.589502           
         O10       1.0000    0.80710   0.38550   0.29900   Biso      1.000     O          -0.589502           
         O11       1.0000    0.71780   0.56740   0.57460   Biso      1.000     O          -0.499832           
         O12       1.0000    0.38550   0.29900   0.80710   Biso      1.000     O          -0.589502           
         O13       1.0000    0.42540   0.21780   0.93260   Biso      1.000     O          -0.499832           
         O14       1.0000    0.88550   0.20100   0.19290   Biso      1.000     O          -0.589502           
         O15       1.0000    0.93260   0.42540   0.21780   Biso      1.000     O          -0.499832           
         O16       1.0000    0.78220   0.43260   0.07460   Biso      1.000     O          -0.499832           
         O17       1.0000    0.70100   0.30710   0.11450   Biso      1.000     O          -0.589502           
         O18       1.0000    0.92540   0.28220   0.06740   Biso      1.000     O          -0.499833           
         O19       1.0000    0.11450   0.70100   0.30710   Biso      1.000     O          -0.589502           
         O20       1.0000    0.07460   0.78220   0.43260   Biso      1.000     O          -0.499832           
         O21       1.0000    0.61450   0.79900   0.69290   Biso      1.000     O          -0.589502           
         O22       1.0000    0.57460   0.71780   0.56740   Biso      1.000     O          -0.499832           
         O23       1.0000    0.28220   0.06740   0.92540   Biso      1.000     O          -0.499832           
         O24       1.0000    0.20100   0.19290   0.88550   Biso      1.000     O          -0.589502           
         Zn1       1.0000    0.22027   0.77973   0.27973   Biso      1.000     Zn          1.031114  
         Zn2       1.0000    0.07348   0.92652   0.42652   Biso      1.000     Zn          0.395182  
         Zn3       1.0000    0.27973   0.22027   0.77973   Biso      1.000     Zn          1.031114  
         Zn4       1.0000    0.42652   0.07348   0.92652   Biso      1.000     Zn          0.395182  
         Zn5       1.0000    0.77973   0.27973   0.22027   Biso      1.000     Zn          1.031113  
         Zn6       1.0000    0.92652   0.42652   0.07348   Biso      1.000     Zn          0.395182  
         Zn7       1.0000    0.72027   0.72027   0.72027   Biso      1.000     Zn          1.031114  
         Zn8       1.0000    0.57348   0.57348   0.57348   Biso      1.000     Zn          0.395182 