
##########################################################################
#               Crystallographic Information Format file
#               Produced by PyCifRW module
#
#  This is a CIF file.  CIF has been adopted by the International
#  Union of Crystallography as the standard for data archiving and
#  transmission.
#
#  For information on this file format, follow the CIF links at
#  http://www.iucr.org
##########################################################################

data_image0

_cell_length_a                          13.442
_cell_length_b                          13.5906
_cell_length_c                          14.8129
_cell_angle_alpha                       107.215
_cell_angle_beta                        106.806
_cell_angle_gamma                       111.025
_symmetry_space_group_name_H-M          'P 1'
_symmetry_int_tables_number             1
loop_
  _symmetry_equiv_pos_as_xyz
         'x, y, z' 
loop_
  _atom_site_label
  _atom_site_occupancy
  _atom_site_fract_x
  _atom_site_fract_y
  _atom_site_fract_z
  _atom_site_thermal_displace_type
  _atom_site_B_iso_or_equiv
  _atom_site_type_symbol
  _atom_site_charge
         C1        1.0000    0.68454   0.43494   0.32808   Biso      1.000     C          0.085906  
         C2        1.0000    0.14137   0.61409   0.80616   Biso      1.000     C          0.583114  
         C3        1.0000    0.15898   0.92608   0.62380   Biso      1.000     C          -0.135622           
         C4        1.0000    0.87006   0.98876   0.33406   Biso      1.000     C          -0.113737           
         C5        1.0000    0.40009   0.55189   0.40638   Biso      1.000     C          -0.126108           
         C6        1.0000    0.44740   0.62612   0.59672   Biso      1.000     C          0.164315  
         C7        1.0000    0.49079   0.29879   0.21724   Biso      1.000     C          0.108914  
         C8        1.0000    0.79315   0.89392   0.23424   Biso      1.000     C          0.013003  
         C9        1.0000    0.45955   0.38702   0.67336   Biso      1.000     C          -0.198607           
         C10       1.0000    0.59991   0.44811   0.59362   Biso      1.000     C          -0.126108           
         C11       1.0000    0.22645   0.91845   0.21724   Biso      1.000     C          0.109493  
         C12       1.0000    0.47558   0.62166   0.50740   Biso      1.000     C          -0.136321           
         C13       1.0000    0.53548   0.69888   0.69906   Biso      1.000     C          -0.187619           
         C14       1.0000    0.93823   0.75289   0.78234   Biso      1.000     C          -0.148174           
         C15       1.0000    0.52442   0.37834   0.49260   Biso      1.000     C          -0.136321           
         C16       1.0000    0.66358   0.00018   0.69906   Biso      1.000     C          -0.187476           
         C17       1.0000    0.38900   0.77030   0.31642   Biso      1.000     C          0.149069  
         C18       1.0000    0.61100   0.22970   0.68358   Biso      1.000     C          0.149069  
         C19       1.0000    0.91804   0.74654   0.68358   Biso      1.000     C          0.046917  
         C20       1.0000    0.63828   0.53408   0.87068   Biso      1.000     C          0.107283  
         C21       1.0000    0.06177   0.24711   0.21766   Biso      1.000     C          -0.148174           
         C22       1.0000    0.85863   0.38591   0.19384   Biso      1.000     C          0.583115  
         C23       1.0000    0.50629   0.85449   0.40638   Biso      1.000     C          -0.126731           
         C24       1.0000    0.12994   0.01124   0.66594   Biso      1.000     C          -0.113736           
         C25       1.0000    0.84102   0.07392   0.37620   Biso      1.000     C          -0.135621           
         C26       1.0000    0.73240   0.33660   0.87068   Biso      1.000     C          0.107108  
         C27       1.0000    0.85646   0.10686   0.67192   Biso      1.000     C          0.085459  
         C28       1.0000    0.20685   0.10608   0.76576   Biso      1.000     C          0.013003  
         C29       1.0000    0.08196   0.25346   0.31642   Biso      1.000     C          0.046917  
         C30       1.0000    0.77355   0.08155   0.78276   Biso      1.000     C          0.109496  
         C31       1.0000    0.55727   0.60144   0.23738   Biso      1.000     C          0.08597   
         C32       1.0000    0.94109   0.34032   0.23424   Biso      1.000     C          0.012672  
         C33       1.0000    0.46452   0.30112   0.30094   Biso      1.000     C          -0.187617           
         C34       1.0000    0.98353   0.30083   0.07550   Biso      1.000     C          0.59056   
         C35       1.0000    0.00682   0.70650   0.82316   Biso      1.000     C          -0.04323  
         C36       1.0000    0.75063   0.02603   0.58506   Biso      1.000     C          -0.190762           
         C37       1.0000    0.54045   0.61298   0.32664   Biso      1.000     C          -0.198606           
         C38       1.0000    0.37681   0.74301   0.21428   Biso      1.000     C          -0.198544           
         C39       1.0000    0.55260   0.37388   0.40328   Biso      1.000     C          0.164314  
         C40       1.0000    0.44273   0.39856   0.76262   Biso      1.000     C          0.085971  
         C41       1.0000    0.33642   0.99982   0.30094   Biso      1.000     C          -0.187474           
         C42       1.0000    0.26760   0.66340   0.12932   Biso      1.000     C          0.107112  
         C43       1.0000    0.73446   0.06296   0.31642   Biso      1.000     C          0.049029  
         C44       1.0000    0.50921   0.70121   0.78276   Biso      1.000     C          0.108916  
         C45       1.0000    0.57258   0.45388   0.68358   Biso      1.000     C          0.14806   
         C46       1.0000    0.65589   0.97055   0.21766   Biso      1.000     C          -0.150457           
         C47       1.0000    0.96482   0.69772   0.62380   Biso      1.000     C          -0.134891           
         C48       1.0000    0.49371   0.14551   0.59362   Biso      1.000     C          -0.126731           
         C49       1.0000    0.33747   0.47127   0.21428   Biso      1.000     C          -0.198158           
         C50       1.0000    0.03600   0.65470   0.66594   Biso      1.000     C          -0.111829           
         C51       1.0000    0.31634   0.11666   0.82316   Biso      1.000     C          -0.04126  
         C52       1.0000    0.83521   0.80793   0.19384   Biso      1.000     C          0.581753  
         C53       1.0000    0.66253   0.52873   0.78572   Biso      1.000     C          -0.198155           
         C54       1.0000    0.59197   0.77467   0.07550   Biso      1.000     C          0.589865  
         C55       1.0000    0.28619   0.71366   0.32664   Biso      1.000     C          -0.198593           
         C56       1.0000    0.31546   0.56506   0.67192   Biso      1.000     C          0.085906  
         C57       1.0000    0.36172   0.46592   0.12932   Biso      1.000     C          0.107286  
         C58       1.0000    0.62319   0.25699   0.78572   Biso      1.000     C          -0.19854  
         C59       1.0000    0.18011   0.63594   0.23738   Biso      1.000     C          0.084952  
         C60       1.0000    0.71381   0.28634   0.67336   Biso      1.000     C          -0.198593           
         C61       1.0000    0.96400   0.34530   0.33406   Biso      1.000     C          -0.111828           
         C62       1.0000    0.64932   0.97060   0.59672   Biso      1.000     C          0.164626  
         C63       1.0000    0.46818   0.11426   0.49260   Biso      1.000     C          -0.134291           
         C64       1.0000    0.42742   0.54612   0.31642   Biso      1.000     C          0.14806   
         C65       1.0000    0.53182   0.88574   0.50740   Biso      1.000     C          -0.134291           
         C66       1.0000    0.05891   0.65968   0.76576   Biso      1.000     C          0.012673  
         C67       1.0000    0.81989   0.36406   0.76262   Biso      1.000     C          0.084952  
         C68       1.0000    0.14354   0.89314   0.32808   Biso      1.000     C          0.085459  
         C69       1.0000    0.40803   0.22533   0.92450   Biso      1.000     C          0.589866  
         C70       1.0000    0.01647   0.69917   0.92450   Biso      1.000     C          0.59056   
         C71       1.0000    0.68366   0.88334   0.17684   Biso      1.000     C          -0.041258           
         C72       1.0000    0.16479   0.19207   0.80616   Biso      1.000     C          0.581753  
         C73       1.0000    0.33443   0.55903   0.58506   Biso      1.000     C          -0.19077  
         C74       1.0000    0.24937   0.97397   0.41494   Biso      1.000     C          -0.190762           
         C75       1.0000    0.99318   0.29350   0.17684   Biso      1.000     C          -0.043228           
         C76       1.0000    0.35068   0.02940   0.40328   Biso      1.000     C          0.164625  
         C77       1.0000    0.66557   0.44097   0.41494   Biso      1.000     C          -0.19077  
         C78       1.0000    0.03518   0.30228   0.37620   Biso      1.000     C          -0.134891           
         C79       1.0000    0.34411   0.02945   0.78234   Biso      1.000     C          -0.150458           
         C80       1.0000    0.26554   0.93704   0.68358   Biso      1.000     C          0.049032  
         H1        1.0000    0.73920   0.57520   0.79660   Biso      1.000     H          0.126629  
         H2        1.0000    0.76080   0.48180   0.33820   Biso      1.000     H          0.100077  
         H3        1.0000    0.28980   0.44710   0.88060   Biso      1.000     H          0.420088  
         H4        1.0000    0.36670   0.35410   0.75420   Biso      1.000     H          0.097936  
         H5        1.0000    0.89200   0.13670   0.44300   Biso      1.000     H          0.132013  
         H6        1.0000    0.28920   0.72820   0.39300   Biso      1.000     H          0.125786  
         H7        1.0000    0.55320   0.67220   0.52300   Biso      1.000     H          0.11527   
         H8        1.0000    0.74650   0.00810   0.51800   Biso      1.000     H          0.12143   
         H9        1.0000    0.61250   0.74630   0.71140   Biso      1.000     H          0.131415  
         H10       1.0000    0.32250   0.50180   0.39100   Biso      1.000     H          0.11082   
         H11       1.0000    0.07740   0.85640   0.33820   Biso      1.000     H          0.100679  
         H12       1.0000    0.71020   0.55290   0.11940   Biso      1.000     H          0.420088  
         H13       1.0000    0.60380   0.66480   0.39300   Biso      1.000     H          0.126037  
         H14       1.0000    0.38750   0.25370   0.28860   Biso      1.000     H          0.131415  
         H15       1.0000    0.41470   0.03340   0.82120   Biso      1.000     H          0.141512  
         H16       1.0000    0.10800   0.86330   0.55700   Biso      1.000     H          0.132013  
         H17       1.0000    0.43000   0.24840   0.14920   Biso      1.000     H          0.10223   
         H18       1.0000    0.94200   0.99490   0.37300   Biso      1.000     H          0.124247  
         H19       1.0000    0.21920   0.90080   0.14920   Biso      1.000     H          0.101943  
         H20       1.0000    0.27150   0.50990   0.51800   Biso      1.000     H          0.121831  
         H21       1.0000    0.40110   0.03490   0.28860   Biso      1.000     H          0.131225  
         H22       1.0000    0.26190   0.64620   0.06180   Biso      1.000     H          0.102752  
         H23       1.0000    0.73810   0.35380   0.93820   Biso      1.000     H          0.102753  
         H24       1.0000    0.90650   0.78780   0.82120   Biso      1.000     H          0.141394  
         H25       1.0000    0.55740   0.22140   0.79660   Biso      1.000     H          0.126806  
         H26       1.0000    0.43150   0.11080   0.60900   Biso      1.000     H          0.110481  
         H27       1.0000    0.25350   0.99190   0.48200   Biso      1.000     H          0.12143   
         H28       1.0000    0.72850   0.49010   0.48200   Biso      1.000     H          0.121831  
         H29       1.0000    0.11250   0.59990   0.24580   Biso      1.000     H          0.097649  
         H30       1.0000    0.59890   0.96510   0.71140   Biso      1.000     H          0.131226  
         H31       1.0000    0.44680   0.32780   0.47700   Biso      1.000     H          0.11527   
         H32       1.0000    0.90920   0.56650   0.11940   Biso      1.000     H          0.419315  
         H33       1.0000    0.09080   0.43350   0.88060   Biso      1.000     H          0.419315  
         H34       1.0000    0.23920   0.51820   0.66180   Biso      1.000     H          0.100077  
         H35       1.0000    0.05800   0.00510   0.62700   Biso      1.000     H          0.124247  
         H36       1.0000    0.70010   0.58440   0.93820   Biso      1.000     H          0.102232  
         H37       1.0000    0.26080   0.42480   0.20340   Biso      1.000     H          0.12663   
         H38       1.0000    0.53020   0.14920   0.47700   Biso      1.000     H          0.114383  
         H39       1.0000    0.39620   0.33520   0.60700   Biso      1.000     H          0.126037  
         H40       1.0000    0.67750   0.49820   0.60900   Biso      1.000     H          0.11082   
         H41       1.0000    0.71080   0.27180   0.60700   Biso      1.000     H          0.125786  
         H42       1.0000    0.05100   0.30630   0.44300   Biso      1.000     H          0.131891  
         H43       1.0000    0.44260   0.77860   0.20340   Biso      1.000     H          0.126806  
         H44       1.0000    0.46980   0.85080   0.52300   Biso      1.000     H          0.114383  
         H45       1.0000    0.57000   0.75160   0.85080   Biso      1.000     H          0.10223   
         H46       1.0000    0.09350   0.21220   0.17880   Biso      1.000     H          0.141394  
         H47       1.0000    0.88750   0.40010   0.75420   Biso      1.000     H          0.097649  
         H48       1.0000    0.78080   0.09920   0.85080   Biso      1.000     H          0.101943  
         H49       1.0000    0.94900   0.69370   0.55700   Biso      1.000     H          0.131891  
         H50       1.0000    0.06900   0.62190   0.62700   Biso      1.000     H          0.123136  
         H51       1.0000    0.56850   0.88920   0.39100   Biso      1.000     H          0.110481  
         H52       1.0000    0.29990   0.41560   0.06180   Biso      1.000     H          0.102232  
         H53       1.0000    0.92260   0.14360   0.66180   Biso      1.000     H          0.100679  
         H54       1.0000    0.63330   0.64590   0.24580   Biso      1.000     H          0.097936  
         H55       1.0000    0.93100   0.37810   0.37300   Biso      1.000     H          0.123136  
         H56       1.0000    0.58530   0.96660   0.17880   Biso      1.000     H          0.141513  
         N1        1.0000    0.40133   0.63510   0.77116   Biso      1.000     N          -0.228154           
         N2        1.0000    0.70266   0.15326   0.36012   Biso      1.000     N          0.535038  
         N3        1.0000    0.86983   0.13606   0.77116   Biso      1.000     N          -0.228864           
         N4        1.0000    0.52979   0.47014   0.86046   Biso      1.000     N          -0.22436  
         N5        1.0000    0.13017   0.86394   0.22884   Biso      1.000     N          -0.228863           
         N6        1.0000    0.15746   0.20686   0.36012   Biso      1.000     N          0.539263  
         N7        1.0000    0.16933   0.60968   0.13954   Biso      1.000     N          -0.223756           
         N8        1.0000    0.59867   0.36490   0.22884   Biso      1.000     N          -0.228154           
         N9        1.0000    0.83067   0.39032   0.86046   Biso      1.000     N          -0.223756           
         N10       1.0000    0.84254   0.79314   0.63988   Biso      1.000     N          0.539263  
         N11       1.0000    0.47021   0.52986   0.13954   Biso      1.000     N          -0.22436  
         N12       1.0000    0.29734   0.84674   0.63988   Biso      1.000     N          0.535038  
         O1        1.0000    0.24603   0.69294   0.87514   Biso      1.000     O          -0.562255           
         O2        1.0000    0.98270   0.75911   0.97890   Biso      1.000     O          -0.542429           
         O3        1.0000    0.50380   0.78021   0.02110   Biso      1.000     O          -0.541474           
         O4        1.0000    0.39061   0.85644   0.69348   Biso      1.000     O          -0.349842           
         O5        1.0000    0.15903   0.25773   0.76532   Biso      1.000     O          -0.556931           
         O6        1.0000    0.10629   0.50759   0.76532   Biso      1.000     O          -0.557076           
         O7        1.0000    0.17636   0.21416   0.44712   Biso      1.000     O          -0.356909           
         O8        1.0000    0.92521   0.58217   0.07330   Biso      1.000     O          -0.910164           
         O9        1.0000    0.82364   0.78584   0.55288   Biso      1.000     O          -0.356909           
         O10       1.0000    0.89371   0.49241   0.23468   Biso      1.000     O          -0.557077           
         O11       1.0000    0.22924   0.76704   0.55288   Biso      1.000     O          -0.355591           
         O12       1.0000    0.60939   0.14356   0.30652   Biso      1.000     O          -0.349842           
         O13       1.0000    0.87089   0.81780   0.12486   Biso      1.000     O          -0.561198           
         O14       1.0000    0.05328   0.63352   0.94546   Biso      1.000     O          -0.536629           
         O15       1.0000    0.75397   0.30706   0.12486   Biso      1.000     O          -0.562255           
         O16       1.0000    0.64809   0.49113   0.07330   Biso      1.000     O          -0.910752           
         O17       1.0000    0.07479   0.41783   0.92670   Biso      1.000     O          -0.910164           
         O18       1.0000    0.12911   0.18220   0.87514   Biso      1.000     O          -0.561198           
         O19       1.0000    0.84097   0.74227   0.23468   Biso      1.000     O          -0.556931           
         O20       1.0000    0.77076   0.23296   0.44712   Biso      1.000     O          -0.355591           
         O21       1.0000    0.94672   0.36648   0.05454   Biso      1.000     O          -0.536628           
         O22       1.0000    0.19713   0.16296   0.30652   Biso      1.000     O          -0.352307           
         O23       1.0000    0.49620   0.21979   0.97890   Biso      1.000     O          -0.541474           
         O24       1.0000    0.60782   0.68806   0.05454   Biso      1.000     O          -0.537342           
         O25       1.0000    0.01730   0.24089   0.02110   Biso      1.000     O          -0.542429           
         O26       1.0000    0.80287   0.83704   0.69348   Biso      1.000     O          -0.352307           
         O27       1.0000    0.35191   0.50887   0.92670   Biso      1.000     O          -0.910752           
         O28       1.0000    0.39218   0.31194   0.94546   Biso      1.000     O          -0.537342           
         Zn1       1.0000    0.96732   0.74028   0.10244   Biso      1.000     Zn          0.868115  
         Zn2       1.0000    0.36488   0.63784   0.89756   Biso      1.000     Zn          0.8672    
         Zn3       1.0000    0.50000   0.50000   0.00000   Biso      1.000     Zn          0.910961  
         Zn4       1.0000    0.00000   0.50000   0.00000   Biso      1.000     Zn          0.909646  
         Zn5       1.0000    0.63512   0.36216   0.10244   Biso      1.000     Zn          0.8672    
         Zn6       1.0000    0.03268   0.25972   0.89756   Biso      1.000     Zn          0.868115 