
##########################################################################
#               Crystallographic Information Format file
#               Produced by PyCifRW module
#
#  This is a CIF file.  CIF has been adopted by the International
#  Union of Crystallography as the standard for data archiving and
#  transmission.
#
#  For information on this file format, follow the CIF links at
#  http://www.iucr.org
##########################################################################

data_image0

_cell_length_a                          13.4867
_cell_length_b                          13.7057
_cell_length_c                          14.7949
_cell_angle_alpha                       108.149
_cell_angle_beta                        107.556
_cell_angle_gamma                       109.44
_symmetry_space_group_name_H-M          'P 1'
_symmetry_int_tables_number             1
loop_
  _symmetry_equiv_pos_as_xyz
         'x, y, z' 
loop_
  _atom_site_label
  _atom_site_occupancy
  _atom_site_fract_x
  _atom_site_fract_y
  _atom_site_fract_z
  _atom_site_thermal_displace_type
  _atom_site_B_iso_or_equiv
  _atom_site_type_symbol
  _atom_site_charge
         C1        1.0000    0.00240   0.29950   0.18060   Biso      1.000     C          -0.040596           
         C2        1.0000    0.21040   0.10710   0.76500   Biso      1.000     C          0.012499  
         C3        1.0000    0.84010   0.07620   0.37620   Biso      1.000     C          -0.135692           
         C4        1.0000    0.67820   0.88110   0.18060   Biso      1.000     C          -0.039663           
         C5        1.0000    0.94540   0.34210   0.23500   Biso      1.000     C          0.014371  
         C6        1.0000    0.63690   0.53430   0.87180   Biso      1.000     C          0.108504  
         C7        1.0000    0.32660   0.99450   0.29780   Biso      1.000     C          -0.184166           
         C8        1.0000    0.39940   0.55200   0.40660   Biso      1.000     C          -0.12673399999999999          
         C9        1.0000    0.08730   0.25580   0.31900   Biso      1.000     C          0.05092   
         C10       1.0000    0.44350   0.39900   0.75900   Biso      1.000     C          0.083939  
         C11       1.0000    0.49810   0.30080   0.21460   Biso      1.000     C          0.107484  
         C12       1.0000    0.61060   0.22850   0.68260   Biso      1.000     C          0.15016500000000002           
         C13       1.0000    0.96390   0.70000   0.62380   Biso      1.000     C          -0.135679           
         C14       1.0000    0.53920   0.61250   0.32920   Biso      1.000     C          -0.19746  
         C15       1.0000    0.50720   0.85460   0.40660   Biso      1.000     C          -0.127115           
         C16       1.0000    0.26510   0.66250   0.12820   Biso      1.000     C          0.106722  
         C17       1.0000    0.60060   0.44800   0.59340   Biso      1.000     C          -0.12673399999999999          
         C18       1.0000    0.15990   0.92380   0.62380   Biso      1.000     C          -0.135692           
         C19       1.0000    0.81550   0.36000   0.75900   Biso      1.000     C          0.085699  
         C20       1.0000    0.05460   0.65790   0.76500   Biso      1.000     C          0.014369999999999999          
         C21       1.0000    0.29000   0.71670   0.32920   Biso      1.000     C          -0.19944  
         C22       1.0000    0.86330   0.38820   0.19380   Biso      1.000     C          0.582037  
         C23       1.0000    0.31080   0.56360   0.67000   Biso      1.000     C          0.08119900000000001           
         C24       1.0000    0.07180   0.25350   0.22200   Biso      1.000     C          -0.154305           
         C25       1.0000    0.67340   0.00550   0.70220   Biso      1.000     C          -0.184166           
         C26       1.0000    0.03610   0.30000   0.37620   Biso      1.000     C          -0.13567200000000001          
         C27       1.0000    0.21650   0.91380   0.21460   Biso      1.000     C          0.10487300000000001           
         C28       1.0000    0.62620   0.25870   0.78720   Biso      1.000     C          -0.196523           
         C29       1.0000    0.26830   0.93680   0.68100   Biso      1.000     C          0.051884000000000007          
         C30       1.0000    0.96460   0.34390   0.33320   Biso      1.000     C          -0.11140499999999999          
         C31       1.0000    0.36310   0.46570   0.12820   Biso      1.000     C          0.108504  
         C32       1.0000    0.66940   0.44230   0.41720   Biso      1.000     C          -0.190203           
         C33       1.0000    0.53690   0.88810   0.50920   Biso      1.000     C          -0.133139           
         C34       1.0000    0.92820   0.74650   0.77800   Biso      1.000     C          -0.154311           
         C35       1.0000    0.55650   0.60100   0.24100   Biso      1.000     C          0.083946  
         C36       1.0000    0.46080   0.38750   0.67080   Biso      1.000     C          -0.197453           
         C37       1.0000    0.33060   0.55770   0.58280   Biso      1.000     C          -0.1902   
         C38       1.0000    0.18450   0.64000   0.24100   Biso      1.000     C          0.085708  
         C39       1.0000    0.41460   0.22810   0.92160   Biso      1.000     C          0.584376  
         C40       1.0000    0.78960   0.89290   0.23500   Biso      1.000     C          0.0125    
         C41       1.0000    0.42800   0.54590   0.31740   Biso      1.000     C          0.15002200000000002           
         C42       1.0000    0.00700   0.69350   0.92160   Biso      1.000     C          0.584137  
         C43       1.0000    0.71000   0.28330   0.67080   Biso      1.000     C          -0.199432           
         C44       1.0000    0.13670   0.61180   0.80620   Biso      1.000     C          0.582038  
         C45       1.0000    0.58540   0.77190   0.07840   Biso      1.000     C          0.584377  
         C46       1.0000    0.03540   0.65610   0.66680   Biso      1.000     C          -0.111403           
         C47       1.0000    0.47120   0.30330   0.29780   Biso      1.000     C          -0.183584           
         C48       1.0000    0.75220   0.02510   0.58280   Biso      1.000     C          -0.190487           
         C49       1.0000    0.55640   0.37430   0.40160   Biso      1.000     C          0.16534400000000002           
         C50       1.0000    0.65480   0.97270   0.59840   Biso      1.000     C          0.16508499999999998           
         C51       1.0000    0.14080   0.89360   0.33000   Biso      1.000     C          0.081764  
         C52       1.0000    0.49280   0.14540   0.59340   Biso      1.000     C          -0.127115           
         C53       1.0000    0.16950   0.19440   0.80620   Biso      1.000     C          0.580903  
         C54       1.0000    0.13140   0.01070   0.66680   Biso      1.000     C          -0.110054           
         C55       1.0000    0.78350   0.08620   0.78540   Biso      1.000     C          0.10487300000000001           
         C56       1.0000    0.24780   0.97490   0.41720   Biso      1.000     C          -0.190485           
         C57       1.0000    0.99300   0.30650   0.07840   Biso      1.000     C          0.584138  
         C58       1.0000    0.73170   0.06320   0.31900   Biso      1.000     C          0.051884000000000007          
         C59       1.0000    0.99760   0.70050   0.81940   Biso      1.000     C          -0.040593000000000004         
         C60       1.0000    0.57200   0.45410   0.68260   Biso      1.000     C          0.15002100000000002           
         C61       1.0000    0.34520   0.02730   0.40160   Biso      1.000     C          0.16508499999999998           
         C62       1.0000    0.83050   0.80560   0.19380   Biso      1.000     C          0.580903  
         C63       1.0000    0.73490   0.33750   0.87180   Biso      1.000     C          0.106726  
         C64       1.0000    0.34980   0.03150   0.77800   Biso      1.000     C          -0.154668           
         C65       1.0000    0.38940   0.77150   0.31740   Biso      1.000     C          0.15016500000000002           
         C66       1.0000    0.86860   0.98930   0.33320   Biso      1.000     C          -0.110054           
         C67       1.0000    0.52880   0.69670   0.70220   Biso      1.000     C          -0.183587           
         C68       1.0000    0.85920   0.10640   0.67000   Biso      1.000     C          0.08176699999999999           
         C69       1.0000    0.65020   0.96850   0.22200   Biso      1.000     C          -0.154665           
         C70       1.0000    0.44360   0.62570   0.59840   Biso      1.000     C          0.16534400000000002           
         C71       1.0000    0.32180   0.11890   0.81940   Biso      1.000     C          -0.039659           
         C72       1.0000    0.46310   0.11190   0.49080   Biso      1.000     C          -0.13314  
         C73       1.0000    0.52770   0.37890   0.49080   Biso      1.000     C          -0.13336199999999998          
         C74       1.0000    0.47230   0.62110   0.50920   Biso      1.000     C          -0.13336099999999998          
         C75       1.0000    0.33900   0.47150   0.21280   Biso      1.000     C          -0.196127           
         C76       1.0000    0.37380   0.74130   0.21280   Biso      1.000     C          -0.196518           
         C77       1.0000    0.68920   0.43640   0.33000   Biso      1.000     C          0.081201  
         C78       1.0000    0.91270   0.74420   0.68100   Biso      1.000     C          0.05093   
         C79       1.0000    0.50190   0.69920   0.78540   Biso      1.000     C          0.10748699999999999           
         C80       1.0000    0.66100   0.52850   0.78720   Biso      1.000     C          -0.196127           
         H1        1.0000    0.56240   0.22500   0.79940   Biso      1.000     H          0.126203  
         H2        1.0000    0.56670   0.88680   0.38940   Biso      1.000     H          0.1115    
         H3        1.0000    0.79330   0.10550   0.85480   Biso      1.000     H          0.10297   
         H4        1.0000    0.11910   0.60600   0.25100   Biso      1.000     H          0.09930499999999999           
         H5        1.0000    0.89320   0.14100   0.44180   Biso      1.000     H          0.131368  
         H6        1.0000    0.47760   0.85510   0.52660   Biso      1.000     H          0.112748  
         H7        1.0000    0.38890   0.02710   0.28360   Biso      1.000     H          0.13380699999999998           
         H8        1.0000    0.28690   0.44410   0.87780   Biso      1.000     H          0.41671   
         H9        1.0000    0.30250   0.41550   0.05960   Biso      1.000     H          0.10311600000000001           
         H10       1.0000    0.05830   0.00380   0.62900   Biso      1.000     H          0.12324500000000001           
         H11       1.0000    0.61110   0.97290   0.71640   Biso      1.000     H          0.13380699999999998           
         H12       1.0000    0.43850   0.25070   0.14520   Biso      1.000     H          0.101092  
         H13       1.0000    0.39470   0.25650   0.28360   Biso      1.000     H          0.133449  
         H14       1.0000    0.56150   0.74930   0.85480   Biso      1.000     H          0.101092  
         H15       1.0000    0.07730   0.85890   0.34200   Biso      1.000     H          0.100751  
         H16       1.0000    0.60140   0.66460   0.39700   Biso      1.000     H          0.123178  
         H17       1.0000    0.74480   0.00530   0.51420   Biso      1.000     H          0.12393499999999999           
         H18       1.0000    0.90910   0.56630   0.12220   Biso      1.000     H          0.41714799999999996           
         H19       1.0000    0.69750   0.58450   0.94040   Biso      1.000     H          0.10311600000000001           
         H20       1.0000    0.52240   0.14490   0.47340   Biso      1.000     H          0.112748  
         H21       1.0000    0.89280   0.77800   0.81500   Biso      1.000     H          0.141549  
         H22       1.0000    0.92930   0.37480   0.37100   Biso      1.000     H          0.123597  
         H23       1.0000    0.39860   0.33540   0.60300   Biso      1.000     H          0.123178  
         H24       1.0000    0.92270   0.14110   0.65800   Biso      1.000     H          0.100751  
         H25       1.0000    0.26940   0.50890   0.51420   Biso      1.000     H          0.123057  
         H26       1.0000    0.57780   0.96300   0.18500   Biso      1.000     H          0.141372  
         H27       1.0000    0.29560   0.73240   0.39700   Biso      1.000     H          0.124233  
         H28       1.0000    0.10680   0.85900   0.55820   Biso      1.000     H          0.131368  
         H29       1.0000    0.73060   0.49110   0.48580   Biso      1.000     H          0.12305799999999999           
         H30       1.0000    0.10720   0.22200   0.18500   Biso      1.000     H          0.141548  
         H31       1.0000    0.43760   0.77500   0.20060   Biso      1.000     H          0.126203  
         H32       1.0000    0.43330   0.11320   0.61060   Biso      1.000     H          0.1115    
         H33       1.0000    0.71310   0.55590   0.12220   Biso      1.000     H          0.41671   
         H34       1.0000    0.88090   0.39400   0.74900   Biso      1.000     H          0.09930499999999999           
         H35       1.0000    0.45100   0.32850   0.47340   Biso      1.000     H          0.112825  
         H36       1.0000    0.76470   0.48310   0.34200   Biso      1.000     H          0.100855  
         H37       1.0000    0.25520   0.99470   0.48580   Biso      1.000     H          0.12393499999999999           
         H38       1.0000    0.63190   0.64500   0.25100   Biso      1.000     H          0.099587  
         H39       1.0000    0.70440   0.26760   0.60300   Biso      1.000     H          0.124232  
         H40       1.0000    0.74290   0.35590   0.94040   Biso      1.000     H          0.104577  
         H41       1.0000    0.23530   0.51690   0.65800   Biso      1.000     H          0.100855  
         H42       1.0000    0.32270   0.50260   0.38940   Biso      1.000     H          0.111374  
         H43       1.0000    0.26300   0.42560   0.20060   Biso      1.000     H          0.12627   
         H44       1.0000    0.20670   0.89450   0.14520   Biso      1.000     H          0.10297   
         H45       1.0000    0.09090   0.43370   0.87780   Biso      1.000     H          0.41714799999999996           
         H46       1.0000    0.42220   0.03700   0.81500   Biso      1.000     H          0.141373  
         H47       1.0000    0.25710   0.64410   0.05960   Biso      1.000     H          0.104577  
         H48       1.0000    0.95140   0.69920   0.55820   Biso      1.000     H          0.132167  
         H49       1.0000    0.67730   0.49740   0.61060   Biso      1.000     H          0.111374  
         H50       1.0000    0.94170   0.99620   0.37100   Biso      1.000     H          0.12324500000000001           
         H51       1.0000    0.60530   0.74350   0.71640   Biso      1.000     H          0.133449  
         H52       1.0000    0.54900   0.67150   0.52660   Biso      1.000     H          0.112825  
         H53       1.0000    0.04860   0.30080   0.44180   Biso      1.000     H          0.132167  
         H54       1.0000    0.73700   0.57440   0.79940   Biso      1.000     H          0.12627   
         H55       1.0000    0.36810   0.35500   0.74900   Biso      1.000     H          0.099587  
         H56       1.0000    0.07070   0.62520   0.62900   Biso      1.000     H          0.123597  
         N1        1.0000    0.83610   0.78840   0.63460   Biso      1.000     N          0.542975  
         N2        1.0000    0.16390   0.21160   0.36540   Biso      1.000     N          0.542976  
         N3        1.0000    0.12339   0.86189   0.22838   Biso      1.000     N          -0.226998           
         N4        1.0000    0.47064   0.52974   0.14048   Biso      1.000     N          -0.227314           
         N5        1.0000    0.29850   0.84620   0.63460   Biso      1.000     N          0.5421189999999999  
         N6        1.0000    0.60499   0.36649   0.22838   Biso      1.000     N          -0.22708699999999998          
         N7        1.0000    0.16984   0.61074   0.14048   Biso      1.000     N          -0.22717199999999999          
         N8        1.0000    0.83016   0.38926   0.85952   Biso      1.000     N          -0.22717199999999999          
         N9        1.0000    0.52936   0.47026   0.85952   Biso      1.000     N          -0.22731300000000002          
         N10       1.0000    0.87661   0.13811   0.77162   Biso      1.000     N          -0.226998           
         N11       1.0000    0.70150   0.15380   0.36540   Biso      1.000     N          0.5421189999999999  
         N12       1.0000    0.39501   0.63351   0.77162   Biso      1.000     N          -0.22708699999999998          
         O1        1.0000    0.16024   0.25744   0.76468   Biso      1.000     O          -0.551886           
         O2        1.0000    0.22420   0.75840   0.55360   Biso      1.000     O          -0.359168           
         O3        1.0000    0.97017   0.75087   0.97574   Biso      1.000     O          -0.542531           
         O4        1.0000    0.75959   0.30979   0.12138   Biso      1.000     O          -0.569229           
         O5        1.0000    0.65041   0.49351   0.07562   Biso      1.000     O          -0.9062520000000001           
         O6        1.0000    0.34959   0.50649   0.92438   Biso      1.000     O          -0.9062520000000001           
         O7        1.0000    0.39643   0.31323   0.94286   Biso      1.000     O          -0.5340600000000001           
         O8        1.0000    0.04643   0.62963   0.94286   Biso      1.000     O          -0.534007           
         O9        1.0000    0.49443   0.77513   0.02426   Biso      1.000     O          -0.5422319999999999           
         O10       1.0000    0.60357   0.68677   0.05714   Biso      1.000     O          -0.5340600000000001           
         O11       1.0000    0.21840   0.18370   0.32100   Biso      1.000     O          -0.35276399999999997          
         O12       1.0000    0.50557   0.22487   0.97574   Biso      1.000     O          -0.5422319999999999           
         O13       1.0000    0.83976   0.74256   0.23532   Biso      1.000     O          -0.551887           
         O14       1.0000    0.86179   0.81159   0.12138   Biso      1.000     O          -0.568358           
         O15       1.0000    0.24041   0.69021   0.87862   Biso      1.000     O          -0.569228           
         O16       1.0000    0.89556   0.49276   0.23532   Biso      1.000     O          -0.552574           
         O17       1.0000    0.07479   0.41789   0.92438   Biso      1.000     O          -0.9069860000000001           
         O18       1.0000    0.77580   0.24160   0.44640   Biso      1.000     O          -0.359168           
         O19       1.0000    0.92521   0.58211   0.07562   Biso      1.000     O          -0.9069860000000001           
         O20       1.0000    0.95357   0.37037   0.05714   Biso      1.000     O          -0.534007           
         O21       1.0000    0.10444   0.50724   0.76468   Biso      1.000     O          -0.552575           
         O22       1.0000    0.13821   0.18841   0.87862   Biso      1.000     O          -0.568358           
         O23       1.0000    0.82940   0.79520   0.55360   Biso      1.000     O          -0.359284           
         O24       1.0000    0.17060   0.20480   0.44640   Biso      1.000     O          -0.35928499999999997          
         O25       1.0000    0.39740   0.86270   0.67900   Biso      1.000     O          -0.352179           
         O26       1.0000    0.78160   0.81630   0.67900   Biso      1.000     O          -0.35276399999999997          
         O27       1.0000    0.02983   0.24913   0.02426   Biso      1.000     O          -0.542531           
         O28       1.0000    0.60260   0.13730   0.32100   Biso      1.000     O          -0.352179           
         Zn1       1.0000    0.64085   0.36627   0.10282   Biso      1.000     Zn          0.866649  
         Zn2       1.0000    0.00000   0.50000   0.00000   Biso      1.000     Zn          0.908575  
         Zn3       1.0000    0.50000   0.50000   0.00000   Biso      1.000     Zn          0.908149  
         Zn4       1.0000    0.03803   0.26345   0.89718   Biso      1.000     Zn          0.866426  
         Zn5       1.0000    0.35915   0.63373   0.89718   Biso      1.000     Zn          0.866648  
         Zn6       1.0000    0.96197   0.73655   0.10282   Biso      1.000     Zn          0.8664270000000001 