
##########################################################################
#               Crystallographic Information Format file
#               Produced by PyCifRW module
#
#  This is a CIF file.  CIF has been adopted by the International
#  Union of Crystallography as the standard for data archiving and
#  transmission.
#
#  For information on this file format, follow the CIF links at
#  http://www.iucr.org
##########################################################################

data_image0

_cell_length_a                          13.838
_cell_length_b                          13.844
_cell_length_c                          14.42
_cell_angle_alpha                       108.31
_cell_angle_beta                        110.43
_cell_angle_gamma                       107.046
_symmetry_space_group_name_H-M          'P 1'
_symmetry_int_tables_number             1
loop_
  _symmetry_equiv_pos_as_xyz
         'x, y, z' 
loop_
  _atom_site_label
  _atom_site_occupancy
  _atom_site_fract_x
  _atom_site_fract_y
  _atom_site_fract_z
  _atom_site_thermal_displace_type
  _atom_site_B_iso_or_equiv
  _atom_site_type_symbol
  _atom_site_charge
         C1        1.0000    0.24000   0.34100   0.36300   Biso      1.000     C          0.0877    
         C2        1.0000    0.94550   0.52000   0.83690   Biso      1.000     C          0.136103  
         C3        1.0000    0.63600   0.89400   0.83600   Biso      1.000     C          0.082203  
         C4        1.0000    0.54700   0.29800   0.88780   Biso      1.000     C          -0.133182           
         C5        1.0000    0.85410   0.45600   0.72200   Biso      1.000     C          -0.20710399999999998          
         C6        1.0000    0.00600   0.08400   0.07900   Biso      1.000     C          -0.045411           
         C7        1.0000    0.05520   0.60300   0.75210   Biso      1.000     C          0.100439  
         C8        1.0000    0.52320   0.65100   0.15600   Biso      1.000     C          -0.103415           
         C9        1.0000    0.80300   0.97700   0.78000   Biso      1.000     C          -0.149819           
         C10       1.0000    0.31000   0.09400   0.30200   Biso      1.000     C          0.081893  
         C11       1.0000    0.14590   0.54400   0.27800   Biso      1.000     C          -0.20710399999999998          
         C12       1.0000    0.48890   0.67700   0.41140   Biso      1.000     C          0.584603  
         C13       1.0000    0.37100   0.38900   0.69300   Biso      1.000     C          0.570444  
         C14       1.0000    0.32700   0.80300   0.69200   Biso      1.000     C          0.5719310000000001  
         C15       1.0000    0.16930   0.86800   0.68220   Biso      1.000     C          -0.062476           
         C16       1.0000    0.00580   0.58500   0.04750   Biso      1.000     C          -0.092887           
         C17       1.0000    0.95860   0.40300   0.15450   Biso      1.000     C          -0.219475           
         C18       1.0000    0.69000   0.90600   0.69800   Biso      1.000     C          0.081903  
         C19       1.0000    0.99420   0.41500   0.95250   Biso      1.000     C          -0.092887           
         C20       1.0000    0.13200   0.25100   0.27700   Biso      1.000     C          -0.163678           
         C21       1.0000    0.77000   0.94200   0.17800   Biso      1.000     C          0.051538  
         C22       1.0000    0.94480   0.39700   0.24790   Biso      1.000     C          0.100439  
         C23       1.0000    0.47970   0.69100   0.30890   Biso      1.000     C          -0.043078           
         C24       1.0000    0.94800   0.61300   0.11340   Biso      1.000     C          0.164851  
         C25       1.0000    0.16700   0.99200   0.11400   Biso      1.000     C          0.136652  
         C26       1.0000    0.40250   0.74400   0.17100   Biso      1.000     C          0.060925  
         C27       1.0000    0.20100   0.43200   0.83850   Biso      1.000     C          0.093352  
         C28       1.0000    0.79900   0.56800   0.16150   Biso      1.000     C          0.093352  
         C29       1.0000    0.59750   0.25600   0.82900   Biso      1.000     C          0.06093   
         C30       1.0000    0.75100   0.97300   0.91600   Biso      1.000     C          -0.154933           
         C31       1.0000    0.03900   0.93200   0.03900   Biso      1.000     C          -0.049362           
         C32       1.0000    0.16800   0.44500   0.91600   Biso      1.000     C          -0.194057           
         C33       1.0000    0.19500   0.26500   0.15500   Biso      1.000     C          -0.171845           
         C34       1.0000    0.96100   0.06800   0.96100   Biso      1.000     C          -0.049365           
         C35       1.0000    0.89400   0.79800   0.83400   Biso      1.000     C          0.118841  
         C36       1.0000    0.06440   0.50700   0.07590   Biso      1.000     C          -0.069979           
         C37       1.0000    0.98600   0.71500   0.29700   Biso      1.000     C          0.0981    
         C38       1.0000    0.85700   0.03800   0.27200   Biso      1.000     C          -0.153355           
         C39       1.0000    0.62900   0.01500   0.16400   Biso      1.000     C          -0.110401           
         C40       1.0000    0.34500   0.07500   0.87870   Biso      1.000     C          -0.13027  
         C41       1.0000    0.54130   0.65800   0.25610   Biso      1.000     C          0.00851   
         C42       1.0000    0.07600   0.75900   0.58340   Biso      1.000     C          0.58098   
         C43       1.0000    0.05450   0.48000   0.16310   Biso      1.000     C          0.136106  
         C44       1.0000    0.87500   0.46700   0.63490   Biso      1.000     C          0.092416  
         C45       1.0000    0.83200   0.55500   0.08400   Biso      1.000     C          -0.19405799999999998          
         C46       1.0000    0.24900   0.02700   0.08400   Biso      1.000     C          -0.154919           
         C47       1.0000    0.71500   0.11400   0.26200   Biso      1.000     C          0.013541  
         C48       1.0000    0.52030   0.30900   0.69110   Biso      1.000     C          -0.043079           
         C49       1.0000    0.10600   0.20200   0.16600   Biso      1.000     C          0.118845  
         C50       1.0000    0.02100   0.69800   0.21700   Biso      1.000     C          -0.186654           
         C51       1.0000    0.14300   0.96200   0.72800   Biso      1.000     C          -0.153366           
         C52       1.0000    0.41240   0.74100   0.26600   Biso      1.000     C          -0.16367  
         C53       1.0000    0.23000   0.05800   0.82200   Biso      1.000     C          0.051549  
         C54       1.0000    0.83070   0.13200   0.31780   Biso      1.000     C          -0.062476           
         C55       1.0000    0.86800   0.74900   0.72300   Biso      1.000     C          -0.163675           
         C56       1.0000    0.58760   0.25900   0.73400   Biso      1.000     C          -0.163671           
         C57       1.0000    0.30180   0.35800   0.24600   Biso      1.000     C          0.08632000000000001           
         C58       1.0000    0.51110   0.32300   0.58860   Biso      1.000     C          0.584604  
         C59       1.0000    0.65500   0.92500   0.12130   Biso      1.000     C          -0.130268           
         C60       1.0000    0.47680   0.34900   0.84400   Biso      1.000     C          -0.103414           
         C61       1.0000    0.28500   0.88600   0.73800   Biso      1.000     C          0.013541  
         C62       1.0000    0.76000   0.65900   0.63700   Biso      1.000     C          0.0877    
         C63       1.0000    0.19700   0.02300   0.22000   Biso      1.000     C          -0.149765           
         C64       1.0000    0.05200   0.38700   0.88660   Biso      1.000     C          0.164851  
         C65       1.0000    0.36400   0.10600   0.16400   Biso      1.000     C          0.082201  
         C66       1.0000    0.93560   0.49300   0.92410   Biso      1.000     C          -0.069979           
         C67       1.0000    0.37100   0.98500   0.83600   Biso      1.000     C          -0.110399           
         C68       1.0000    0.83300   0.00800   0.88600   Biso      1.000     C          0.136706  
         C69       1.0000    0.01400   0.28500   0.70300   Biso      1.000     C          0.0981    
         C70       1.0000    0.67300   0.19700   0.30800   Biso      1.000     C          0.5719310000000001  
         C71       1.0000    0.04140   0.59700   0.84550   Biso      1.000     C          -0.219471           
         C72       1.0000    0.99400   0.91600   0.92100   Biso      1.000     C          -0.045412           
         C73       1.0000    0.97900   0.30200   0.78300   Biso      1.000     C          -0.186654           
         C74       1.0000    0.80500   0.73500   0.84500   Biso      1.000     C          -0.171842           
         C75       1.0000    0.62900   0.61100   0.30700   Biso      1.000     C          0.570445  
         C76       1.0000    0.69820   0.64200   0.75400   Biso      1.000     C          0.08632000000000001           
         C77       1.0000    0.45870   0.34200   0.74390   Biso      1.000     C          0.00851   
         C78       1.0000    0.92400   0.24100   0.41660   Biso      1.000     C          0.58098   
         C79       1.0000    0.12500   0.53300   0.36510   Biso      1.000     C          0.092416  
         C80       1.0000    0.45300   0.70200   0.11220   Biso      1.000     C          -0.133177           
         H1        1.0000    0.77750   0.50670   0.00910   Biso      1.000     H          0.117797  
         H2        1.0000    0.07550   0.22300   0.29550   Biso      1.000     H          0.125197  
         H3        1.0000    0.37630   0.77160   0.30220   Biso      1.000     H          0.141206  
         H4        1.0000    0.18540   0.24530   0.08290   Biso      1.000     H          0.10818900000000001           
         H5        1.0000    0.06250   0.65430   0.05690   Biso      1.000     H          0.098846  
         H6        1.0000    0.81430   0.42140   0.56200   Biso      1.000     H          0.095027  
         H7        1.0000    0.89780   0.35000   0.08300   Biso      1.000     H          0.106807  
         H8        1.0000    0.77200   0.00340   0.99130   Biso      1.000     H          0.118326  
         H9        1.0000    0.74820   0.63610   0.56470   Biso      1.000     H          0.097402  
         H10       1.0000    0.58220   0.86620   0.85730   Biso      1.000     H          0.115327  
         H11       1.0000    0.55760   0.29430   0.95360   Biso      1.000     H          0.13635   
         H12       1.0000    0.59880   0.85700   0.05760   Biso      1.000     H          0.13234100000000001           
         H13       1.0000    0.81460   0.75470   0.91710   Biso      1.000     H          0.10818900000000001           
         H14       1.0000    0.44540   0.38380   0.88300   Biso      1.000     H          0.134615  
         H15       1.0000    0.62370   0.22840   0.69780   Biso      1.000     H          0.141206  
         H16       1.0000    0.96290   0.22510   0.63130   Biso      1.000     H          0.109277  
         H17       1.0000    0.44520   0.99250   0.87210   Biso      1.000     H          0.127256  
         H18       1.0000    0.87460   0.34370   0.23320   Biso      1.000     H          0.09690599999999999           
         H19       1.0000    0.35740   0.39300   0.22970   Biso      1.000     H          0.097438  
         H20       1.0000    0.92450   0.77700   0.70450   Biso      1.000     H          0.125197  
         H21       1.0000    0.12540   0.65630   0.76680   Biso      1.000     H          0.09690599999999999           
         H22       1.0000    0.21940   0.59230   0.29560   Biso      1.000     H          0.126717  
         H23       1.0000    0.55460   0.61620   0.11700   Biso      1.000     H          0.134615  
         H24       1.0000    0.85830   0.00440   0.75970   Biso      1.000     H          0.1395    
         H25       1.0000    0.85380   0.45640   0.90350   Biso      1.000     H          0.088894  
         H26       1.0000    0.25180   0.36390   0.43530   Biso      1.000     H          0.097402  
         H27       1.0000    0.55480   0.00750   0.12790   Biso      1.000     H          0.12725699999999998           
         H28       1.0000    0.06910   0.95620   0.69460   Biso      1.000     H          0.144974  
         H29       1.0000    0.93750   0.34570   0.94310   Biso      1.000     H          0.098846  
         H30       1.0000    0.40120   0.14300   0.94240   Biso      1.000     H          0.13234200000000002           
         H31       1.0000    0.42320   0.55570   0.62500   Biso      1.000     H          0.417738  
         H32       1.0000    0.14620   0.54360   0.09650   Biso      1.000     H          0.088894  
         H33       1.0000    0.79820   0.43530   0.37320   Biso      1.000     H          0.41820100000000004           
         H34       1.0000    0.20180   0.56470   0.62680   Biso      1.000     H          0.41820100000000004           
         H35       1.0000    0.72270   0.52460   0.14010   Biso      1.000     H          0.104394  
         H36       1.0000    0.22800   0.99660   0.00870   Biso      1.000     H          0.118325  
         H37       1.0000    0.44240   0.70570   0.04640   Biso      1.000     H          0.13635   
         H38       1.0000    0.64260   0.60700   0.77030   Biso      1.000     H          0.097439  
         H39       1.0000    0.14170   0.99560   0.24030   Biso      1.000     H          0.139496  
         H40       1.0000    0.18570   0.57860   0.43800   Biso      1.000     H          0.095027  
         H41       1.0000    0.03710   0.77490   0.36870   Biso      1.000     H          0.109277  
         H42       1.0000    0.93090   0.04380   0.30540   Biso      1.000     H          0.144973  
         H43       1.0000    0.22250   0.49330   0.99090   Biso      1.000     H          0.117796  
         H44       1.0000    0.66900   0.88850   0.62430   Biso      1.000     H          0.11345999999999999           
         H45       1.0000    0.33100   0.11150   0.37570   Biso      1.000     H          0.11345999999999999           
         H46       1.0000    0.10220   0.65000   0.91700   Biso      1.000     H          0.106806  
         H47       1.0000    0.90460   0.25500   0.76440   Biso      1.000     H          0.138398  
         H48       1.0000    0.57680   0.44430   0.37500   Biso      1.000     H          0.417738  
         H49       1.0000    0.27730   0.47540   0.85990   Biso      1.000     H          0.104394  
         H50       1.0000    0.78060   0.40770   0.70440   Biso      1.000     H          0.126717  
         H51       1.0000    0.41780   0.13380   0.14270   Biso      1.000     H          0.115327  
         H52       1.0000    0.09540   0.74500   0.23560   Biso      1.000     H          0.138398  
         N1        1.0000    0.02540   0.46150   0.35100   Biso      1.000     N          -0.216336           
         N2        1.0000    0.39640   0.14200   0.27600   Biso      1.000     N          -0.24179699999999998          
         N3        1.0000    0.60360   0.85800   0.72400   Biso      1.000     N          -0.241798           
         N4        1.0000    0.97460   0.53850   0.64900   Biso      1.000     N          -0.216336           
         N5        1.0000    0.79800   0.84700   0.13400   Biso      1.000     N          0.523787  
         N6        1.0000    0.32750   0.39800   0.35010   Biso      1.000     N          -0.19609300000000002          
         N7        1.0000    0.87420   0.64420   0.27100   Biso      1.000     N          -0.256137           
         N8        1.0000    0.32600   0.79100   0.12300   Biso      1.000     N          0.51483   
         N9        1.0000    0.12580   0.35580   0.72900   Biso      1.000     N          -0.256137           
         N10       1.0000    0.20200   0.15300   0.86600   Biso      1.000     N          0.523786  
         N11       1.0000    0.67400   0.20900   0.87700   Biso      1.000     N          0.51483   
         N12       1.0000    0.67250   0.60200   0.64990   Biso      1.000     N          -0.19609300000000002          
         O1        1.0000    0.43080   0.57960   0.57930   Biso      1.000     O          -0.910425           
         O2        1.0000    0.97790   0.76230   0.53700   Biso      1.000     O          -0.559289           
         O3        1.0000    0.66470   0.25730   0.25830   Biso      1.000     O          -0.564613           
         O4        1.0000    0.85010   0.50380   0.41720   Biso      1.000     O          -0.9145059999999999           
         O5        1.0000    0.09400   0.67520   0.55600   Biso      1.000     O          -0.515551           
         O6        1.0000    0.34630   0.79790   0.61300   Biso      1.000     O          -0.537904           
         O7        1.0000    0.28600   0.24400   0.94300   Biso      1.000     O          -0.356696           
         O8        1.0000    0.40480   0.49200   0.74310   Biso      1.000     O          -0.550984           
         O9        1.0000    0.53230   0.61710   0.43820   Biso      1.000     O          -0.5280050000000001           
         O10       1.0000    0.89900   0.87000   0.16900   Biso      1.000     O          -0.34316399999999997          
         O11       1.0000    0.71400   0.75600   0.05700   Biso      1.000     O          -0.356696           
         O12       1.0000    0.33530   0.74270   0.74170   Biso      1.000     O          -0.564613           
         O13       1.0000    0.27170   0.31510   0.61370   Biso      1.000     O          -0.5592739999999999           
         O14       1.0000    0.65370   0.20210   0.38700   Biso      1.000     O          -0.537905           
         O15       1.0000    0.02210   0.23770   0.46300   Biso      1.000     O          -0.559289           
         O16       1.0000    0.44500   0.72810   0.46260   Biso      1.000     O          -0.554669           
         O17       1.0000    0.59520   0.50800   0.25690   Biso      1.000     O          -0.550983           
         O18       1.0000    0.55500   0.27190   0.53740   Biso      1.000     O          -0.554669           
         O19       1.0000    0.26390   0.81000   0.16200   Biso      1.000     O          -0.345308           
         O20       1.0000    0.33700   0.81400   0.05010   Biso      1.000     O          -0.338879           
         O21       1.0000    0.56920   0.42040   0.42070   Biso      1.000     O          -0.910425           
         O22       1.0000    0.10100   0.13000   0.83100   Biso      1.000     O          -0.34316399999999997          
         O23       1.0000    0.72830   0.68490   0.38630   Biso      1.000     O          -0.5592739999999999           
         O24       1.0000    0.46770   0.38290   0.56180   Biso      1.000     O          -0.5280060000000001           
         O25       1.0000    0.14990   0.49620   0.58280   Biso      1.000     O          -0.9145059999999999           
         O26       1.0000    0.90600   0.32480   0.44400   Biso      1.000     O          -0.515551           
         O27       1.0000    0.73610   0.19000   0.83800   Biso      1.000     O          -0.34530700000000003          
         O28       1.0000    0.66300   0.18600   0.94990   Biso      1.000     O          -0.338879           
         Zn1       1.0000    0.00000   0.50000   0.50000   Biso      1.000     Zn          0.9045790000000001  
         Zn2       1.0000    0.84410   0.63070   0.39980   Biso      1.000     Zn          0.8893700000000001  
         Zn3       1.0000    0.15590   0.36930   0.60020   Biso      1.000     Zn          0.8893709999999999  
         Zn4       1.0000    0.55300   0.27400   0.40020   Biso      1.000     Zn          0.884603  
         Zn5       1.0000    0.50000   0.50000   0.50000   Biso      1.000     Zn          0.9156    
         Zn6       1.0000    0.44700   0.72600   0.59980   Biso      1.000     Zn          0.884602 