
##########################################################################
#               Crystallographic Information Format file
#               Produced by PyCifRW module
#
#  This is a CIF file.  CIF has been adopted by the International
#  Union of Crystallography as the standard for data archiving and
#  transmission.
#
#  For information on this file format, follow the CIF links at
#  http://www.iucr.org
##########################################################################

data_image0

_cell_length_a                          12.2048
_cell_length_b                          12.2048
_cell_length_c                          16.3122
_cell_angle_alpha                       77.6399
_cell_angle_beta                        70.5099
_cell_angle_gamma                       105.544
_symmetry_space_group_name_H-M          'P 1'
_symmetry_int_tables_number             1
loop_
  _symmetry_equiv_pos_as_xyz
         'x, y, z' 
loop_
  _atom_site_label
  _atom_site_occupancy
  _atom_site_fract_x
  _atom_site_fract_y
  _atom_site_fract_z
  _atom_site_thermal_displace_type
  _atom_site_B_iso_or_equiv
  _atom_site_type_symbol
  _atom_site_charge
         C1        1.0000    0.67700   0.07290   0.40290   Biso      1.000     C          -0.130049           
         C2        1.0000    0.10090   0.42620   0.12510   Biso      1.000     C          -0.044101           
         C3        1.0000    0.97580   0.07990   0.09710   Biso      1.000     C          -0.13126  
         C4        1.0000    0.32300   0.92710   0.59710   Biso      1.000     C          -0.130049           
         C5        1.0000    0.51840   0.55050   0.95790   Biso      1.000     C          -0.19538699999999998          
         C6        1.0000    0.73300   0.32610   0.12090   Biso      1.000     C          -0.085064           
         C7        1.0000    0.19140   0.52780   0.80720   Biso      1.000     C          0.614373  
         C8        1.0000    0.48160   0.44950   0.04210   Biso      1.000     C          -0.195388           
         C9        1.0000    0.83500   0.99860   0.69280   Biso      1.000     C          0.614645  
         C10       1.0000    0.71920   0.04730   0.46730   Biso      1.000     C          -0.044465           
         C11       1.0000    0.21020   0.11310   0.84470   Biso      1.000     C          -0.094898           
         C12       1.0000    0.94870   0.77400   0.62510   Biso      1.000     C          -0.041212           
         C13       1.0000    0.07820   0.52480   0.36960   Biso      1.000     C          -0.092669           
         C14       1.0000    0.00840   0.47630   0.54210   Biso      1.000     C          -0.196109           
         C15       1.0000    0.74780   0.44010   0.87530   Biso      1.000     C          0.075999  
         C16       1.0000    0.21880   0.85260   0.18100   Biso      1.000     C          0.554295  
         C17       1.0000    0.35850   0.76220   0.88350   Biso      1.000     C          -0.129746           
         C18       1.0000    0.63570   0.96410   0.24860   Biso      1.000     C          -0.21214899999999998          
         C19       1.0000    0.29570   0.62090   0.81160   Biso      1.000     C          -0.05017  
         C20       1.0000    0.58010   0.34000   0.24910   Biso      1.000     C          0.059523  
         C21       1.0000    0.60380   0.88110   0.47150   Biso      1.000     C          0.077201  
         C22       1.0000    0.41990   0.66000   0.75090   Biso      1.000     C          0.059524  
         C23       1.0000    0.99160   0.52370   0.45790   Biso      1.000     C          -0.196109           
         C24       1.0000    0.26700   0.67390   0.87910   Biso      1.000     C          -0.085051           
         C25       1.0000    0.18460   0.37690   0.37530   Biso      1.000     C          0.07283300000000001           
         C26       1.0000    0.85430   0.75800   0.38350   Biso      1.000     C          -0.129997           
         C27       1.0000    0.70430   0.37910   0.18840   Biso      1.000     C          -0.050167           
         C28       1.0000    0.88030   0.70400   0.31790   Biso      1.000     C          0.079432  
         C29       1.0000    0.98540   0.81350   0.96730   Biso      1.000     C          -0.042714           
         C30       1.0000    0.53360   0.39980   0.31900   Biso      1.000     C          0.553299  
         C31       1.0000    0.08910   0.82920   0.25090   Biso      1.000     C          0.05754   
         C32       1.0000    0.28080   0.95270   0.53270   Biso      1.000     C          -0.044465           
         C33       1.0000    0.45780   0.05490   0.65530   Biso      1.000     C          -0.095134           
         C34       1.0000    0.28730   0.11570   0.74860   Biso      1.000     C          -0.21020100000000003          
         C35       1.0000    0.11970   0.29600   0.68210   Biso      1.000     C          0.079424  
         C36       1.0000    0.36430   0.03590   0.75140   Biso      1.000     C          -0.21214899999999998          
         C37       1.0000    0.02420   0.92010   0.90290   Biso      1.000     C          -0.13122899999999998          
         C38       1.0000    0.78980   0.88690   0.15530   Biso      1.000     C          -0.094898           
         C39       1.0000    0.00390   0.31240   0.37150   Biso      1.000     C          -0.115246           
         C40       1.0000    0.78120   0.14740   0.81900   Biso      1.000     C          0.554295  
         C41       1.0000    0.64150   0.23780   0.11650   Biso      1.000     C          -0.129735           
         C42       1.0000    0.14740   0.92470   0.97150   Biso      1.000     C          0.075241  
         C43       1.0000    0.39440   0.44780   0.13040   Biso      1.000     C          -0.091307           
         C44       1.0000    0.80860   0.47220   0.19280   Biso      1.000     C          0.614373  
         C45       1.0000    0.81610   0.62460   0.87150   Biso      1.000     C          -0.114165           
         C46       1.0000    0.46640   0.60020   0.68100   Biso      1.000     C          0.553299  
         C47       1.0000    0.81540   0.62310   0.62470   Biso      1.000     C          0.07283300000000001           
         C48       1.0000    0.93250   0.10730   0.68840   Biso      1.000     C          -0.047023           
         C49       1.0000    0.71270   0.88430   0.25140   Biso      1.000     C          -0.21020100000000003          
         C50       1.0000    0.25220   0.55990   0.12470   Biso      1.000     C          0.075999  
         C51       1.0000    0.60560   0.55220   0.86960   Biso      1.000     C          -0.091307           
         C52       1.0000    0.05300   0.14610   0.62090   Biso      1.000     C          -0.087587           
         C53       1.0000    0.16500   0.00140   0.30720   Biso      1.000     C          0.614644  
         C54       1.0000    0.47810   0.80180   0.81790   Biso      1.000     C          0.082152  
         C55       1.0000    0.91090   0.17080   0.74910   Biso      1.000     C          0.057541999999999996          
         C56       1.0000    0.94700   0.85390   0.37910   Biso      1.000     C          -0.087577           
         C57       1.0000    0.92180   0.47520   0.63040   Biso      1.000     C          -0.09267  
         C58       1.0000    0.14570   0.24200   0.61650   Biso      1.000     C          -0.12997899999999998          
         C59       1.0000    0.05130   0.22600   0.37490   Biso      1.000     C          -0.041175           
         C60       1.0000    0.89910   0.57380   0.87490   Biso      1.000     C          -0.044068           
         C61       1.0000    0.52190   0.19820   0.18210   Biso      1.000     C          0.08215   
         C62       1.0000    0.54220   0.94510   0.34470   Biso      1.000     C          -0.095134           
         C63       1.0000    0.39620   0.11890   0.52850   Biso      1.000     C          0.077201  
         C64       1.0000    0.06750   0.89270   0.31160   Biso      1.000     C          -0.047021           
         C65       1.0000    0.99610   0.68760   0.62850   Biso      1.000     C          -0.11520999999999999          
         C66       1.0000    0.01460   0.18650   0.03270   Biso      1.000     C          -0.042682           
         C67       1.0000    0.85260   0.07530   0.02850   Biso      1.000     C          0.07524   
         C68       1.0000    0.18390   0.37540   0.12850   Biso      1.000     C          -0.11413399999999999          
         Cd1       1.0000    0.30056   0.17434   0.36870   Biso      1.000     Cd          0.777181  
         Cd2       1.0000    0.95696   0.33074   0.86870   Biso      1.000     Cd          0.775349  
         Cd3       1.0000    0.04304   0.66926   0.13130   Biso      1.000     Cd          0.775349  
         Cd4       1.0000    0.69944   0.82566   0.63130   Biso      1.000     Cd          0.777181  
         H1        1.0000    0.44070   0.20090   0.51180   Biso      1.000     H          0.11118800000000001           
         H2        1.0000    0.62800   0.62810   0.82250   Biso      1.000     H          0.108001  
         H3        1.0000    0.01280   0.05790   0.13610   Biso      1.000     H          0.135116  
         H4        1.0000    0.95060   0.45050   0.67750   Biso      1.000     H          0.108082  
         H5        1.0000    0.73400   0.85160   0.12940   Biso      1.000     H          0.11912400000000001           
         H6        1.0000    0.07260   0.69210   0.63030   Biso      1.000     H          0.141047  
         H7        1.0000    0.77210   0.10430   0.48060   Biso      1.000     H          0.112881  
         H8        1.0000    0.30600   0.85110   0.63610   Biso      1.000     H          0.134802  
         H9        1.0000    0.07080   0.10630   0.57830   Biso      1.000     H          0.11282   
         H10       1.0000    0.33990   0.79520   0.93050   Biso      1.000     H          0.123128  
         H11       1.0000    0.65710   0.80200   0.28910   Biso      1.000     H          0.12534700000000001           
         H12       1.0000    0.66010   0.20480   0.06950   Biso      1.000     H          0.123128  
         H13       1.0000    0.15970   0.16150   0.84020   Biso      1.000     H          0.112945  
         H14       1.0000    0.18460   0.64910   0.92170   Biso      1.000     H          0.112554  
         H15       1.0000    0.56320   0.48790   0.85210   Biso      1.000     H          0.10959300000000001           
         H16       1.0000    0.59110   0.94620   0.21090   Biso      1.000     H          0.126067  
         H17       1.0000    0.69150   0.04810   0.22020   Biso      1.000     H          0.09891699999999999           
         H18       1.0000    0.08490   0.25270   0.01940   Biso      1.000     H          0.11253699999999998           
         H19       1.0000    0.02440   0.38740   0.12460   Biso      1.000     H          0.110299  
         H20       1.0000    0.77430   0.72960   0.43050   Biso      1.000     H          0.125389  
         H21       1.0000    0.44260   0.55220   0.95140   Biso      1.000     H          0.109376  
         H22       1.0000    0.34290   0.19800   0.71090   Biso      1.000     H          0.12534700000000001           
         H23       1.0000    0.92740   0.30790   0.36970   Biso      1.000     H          0.14105   
         H24       1.0000    0.55740   0.44780   0.04860   Biso      1.000     H          0.109376  
         H25       1.0000    0.98800   0.85100   0.62460   Biso      1.000     H          0.10975499999999999           
         H26       1.0000    0.50170   0.99990   0.65980   Biso      1.000     H          0.11283299999999999           
         H27       1.0000    0.30850   0.95190   0.77980   Biso      1.000     H          0.09891699999999999           
         H28       1.0000    0.30410   0.63230   0.12340   Biso      1.000     H          0.107998  
         H29       1.0000    0.84030   0.83850   0.15980   Biso      1.000     H          0.112945  
         H30       1.0000    0.91510   0.74730   0.98060   Biso      1.000     H          0.11254000000000002           
         H31       1.0000    0.53950   0.86550   0.81860   Biso      1.000     H          0.11019300000000001           
         H32       1.0000    0.55930   0.79910   0.48820   Biso      1.000     H          0.11118900000000001           
         H33       1.0000    0.26600   0.14840   0.87060   Biso      1.000     H          0.11912400000000001           
         H34       1.0000    0.76830   0.91170   0.27980   Biso      1.000     H          0.098826  
         H35       1.0000    0.16000   0.58470   0.35210   Biso      1.000     H          0.110172  
         H36       1.0000    0.48100   0.86340   0.37060   Biso      1.000     H          0.119906  
         H37       1.0000    0.37200   0.37190   0.17750   Biso      1.000     H          0.108001  
         H38       1.0000    0.51900   0.13660   0.62940   Biso      1.000     H          0.119906  
         H39       1.0000    0.00360   0.39400   0.54860   Biso      1.000     H          0.108851  
         H40       1.0000    0.22570   0.27040   0.56950   Biso      1.000     H          0.125388  
         H41       1.0000    0.43680   0.51210   0.14790   Biso      1.000     H          0.10959300000000001           
         H42       1.0000    0.21270   0.95250   0.98820   Biso      1.000     H          0.11151300000000001           
         H43       1.0000    0.49830   0.00010   0.34020   Biso      1.000     H          0.11283299999999999           
         H44       1.0000    0.78730   0.04750   0.01180   Biso      1.000     H          0.11151300000000001           
         H45       1.0000    0.81540   0.35090   0.07830   Biso      1.000     H          0.112554  
         H46       1.0000    0.55510   0.62470   0.96780   Biso      1.000     H          0.104583  
         H47       1.0000    0.09250   0.52290   0.53220   Biso      1.000     H          0.10563900000000001           
         H48       1.0000    0.25570   0.42750   0.37660   Biso      1.000     H          0.109752  
         H49       1.0000    0.69400   0.14890   0.36390   Biso      1.000     H          0.134802  
         H50       1.0000    0.44490   0.37530   0.03220   Biso      1.000     H          0.104583  
         H51       1.0000    0.74430   0.57250   0.62340   Biso      1.000     H          0.109752  
         H52       1.0000    0.17760   0.29710   0.13030   Biso      1.000     H          0.141836  
         H53       1.0000    0.22790   0.89570   0.51940   Biso      1.000     H          0.112881  
         H54       1.0000    0.40890   0.05380   0.78910   Biso      1.000     H          0.126067  
         H55       1.0000    0.90750   0.47710   0.46780   Biso      1.000     H          0.10563900000000001           
         H56       1.0000    0.97560   0.61260   0.87540   Biso      1.000     H          0.110297  
         H57       1.0000    0.82240   0.70290   0.86970   Biso      1.000     H          0.14183900000000002           
         H58       1.0000    0.04940   0.54950   0.32250   Biso      1.000     H          0.108082  
         H59       1.0000    0.18410   0.35810   0.68140   Biso      1.000     H          0.110024  
         H60       1.0000    0.01200   0.14900   0.37540   Biso      1.000     H          0.109752  
         H61       1.0000    0.84000   0.41530   0.64790   Biso      1.000     H          0.110172  
         H62       1.0000    0.81590   0.64190   0.31860   Biso      1.000     H          0.110023  
         H63       1.0000    0.23170   0.08830   0.72020   Biso      1.000     H          0.098826  
         H64       1.0000    0.69590   0.36770   0.87660   Biso      1.000     H          0.107998  
         H65       1.0000    0.99640   0.60600   0.45140   Biso      1.000     H          0.108851  
         H66       1.0000    0.98720   0.94210   0.86390   Biso      1.000     H          0.135114  
         H67       1.0000    0.92920   0.89370   0.42170   Biso      1.000     H          0.11282   
         H68       1.0000    0.46050   0.13450   0.18140   Biso      1.000     H          0.11019300000000001           
         N1        1.0000    0.49150   0.24840   0.24670   Biso      1.000     N          -0.261359           
         N2        1.0000    0.14270   0.54230   0.12260   Biso      1.000     N          -0.270942           
         N3        1.0000    0.87120   0.01020   0.09400   Biso      1.000     N          0.074568  
         N4        1.0000    0.99510   0.73820   0.25330   Biso      1.000     N          -0.258641           
         N5        1.0000    0.83510   0.73470   0.62260   Biso      1.000     N          -0.27261799999999997          
         N6        1.0000    0.93780   0.18500   0.98960   Biso      1.000     N          -0.278596           
         N7        1.0000    0.12880   0.98980   0.90600   Biso      1.000     N          0.07456499999999999           
         N8        1.0000    0.67460   0.92740   0.51040   Biso      1.000     N          -0.279481           
         N9        1.0000    0.32540   0.07260   0.48960   Biso      1.000     N          -0.279481           
         N10       1.0000    0.27930   0.46230   0.12880   Biso      1.000     N          0.07296   
         N11       1.0000    0.50850   0.75160   0.75330   Biso      1.000     N          -0.26136  
         N12       1.0000    0.00490   0.26180   0.74670   Biso      1.000     N          -0.25864000000000004          
         N13       1.0000    0.16490   0.26530   0.37740   Biso      1.000     N          -0.272623           
         N14       1.0000    0.85730   0.45770   0.87740   Biso      1.000     N          -0.270946           
         N15       1.0000    0.72070   0.53770   0.87120   Biso      1.000     N          0.072963  
         N16       1.0000    0.60420   0.96520   0.40600   Biso      1.000     N          0.07425   
         N17       1.0000    0.90890   0.59190   0.62880   Biso      1.000     N          0.07595700000000001           
         N18       1.0000    0.39580   0.03480   0.59400   Biso      1.000     N          0.07425   
         N19       1.0000    0.06220   0.81500   0.01040   Biso      1.000     N          -0.278593           
         N20       1.0000    0.09110   0.40810   0.37120   Biso      1.000     N          0.07596   
         O1        1.0000    0.13570   0.43500   0.87330   Biso      1.000     O          -0.562192           
         O2        1.0000    0.77300   0.19130   0.88170   Biso      1.000     O          -0.6032420000000001           
         O3        1.0000    0.20600   0.09670   0.24230   Biso      1.000     O          -0.611956           
         O4        1.0000    0.30590   0.91270   0.19160   Biso      1.000     O          -0.560491           
         O5        1.0000    0.22700   0.80870   0.11830   Biso      1.000     O          -0.6032420000000001           
         O6        1.0000    0.16100   0.55170   0.74230   Biso      1.000     O          -0.61149  
         O7        1.0000    0.42700   0.34530   0.38170   Biso      1.000     O          -0.60342  
         O8        1.0000    0.57300   0.65470   0.61830   Biso      1.000     O          -0.60342  
         O9        1.0000    0.60430   0.49750   0.30840   Biso      1.000     O          -0.5598489999999999           
         O10       1.0000    0.86430   0.56500   0.12670   Biso      1.000     O          -0.562191           
         O11       1.0000    0.39570   0.50250   0.69160   Biso      1.000     O          -0.5598479999999999           
         O12       1.0000    0.80830   0.00900   0.62670   Biso      1.000     O          -0.563084           
         O13       1.0000    0.79400   0.90330   0.75770   Biso      1.000     O          -0.611956           
         O14       1.0000    0.69410   0.08730   0.80840   Biso      1.000     O          -0.560491           
         O15       1.0000    0.83900   0.44830   0.25770   Biso      1.000     O          -0.6114890000000001           
         O16       1.0000    0.19170   0.99100   0.37330   Biso      1.000     O          -0.563084 