
##########################################################################
#               Crystallographic Information Format file
#               Produced by PyCifRW module
#
#  This is a CIF file.  CIF has been adopted by the International
#  Union of Crystallography as the standard for data archiving and
#  transmission.
#
#  For information on this file format, follow the CIF links at
#  http://www.iucr.org
##########################################################################

data_image0

_cell_length_a                          8.497
_cell_length_b                          9.167
_cell_length_c                          12.57
_cell_angle_alpha                       90
_cell_angle_beta                        90
_cell_angle_gamma                       90
_symmetry_space_group_name_H-M          'P 1'
_symmetry_int_tables_number             1
loop_
  _symmetry_equiv_pos_as_xyz
         'x, y, z' 
loop_
  _atom_site_label
  _atom_site_occupancy
  _atom_site_fract_x
  _atom_site_fract_y
  _atom_site_fract_z
  _atom_site_thermal_displace_type
  _atom_site_B_iso_or_equiv
  _atom_site_type_symbol
  _atom_site_charge
         C1        1.0000    0.51850   0.44530   0.97900   Biso      1.000     C          -0.180001           
         C2        1.0000    0.21360   0.75000   0.21800   Biso      1.000     C          -0.259456           
         C3        1.0000    0.61340   0.75000   0.22150   Biso      1.000     C          -0.083089           
         C4        1.0000    0.71360   0.75000   0.28200   Biso      1.000     C          -0.259654           
         C5        1.0000    0.11340   0.75000   0.27850   Biso      1.000     C          -0.08338200000000001          
         C6        1.0000    0.78640   0.25000   0.78200   Biso      1.000     C          -0.25993499999999997          
         C7        1.0000    0.88660   0.25000   0.72150   Biso      1.000     C          -0.083006           
         C8        1.0000    0.38660   0.25000   0.77850   Biso      1.000     C          -0.083375           
         C9        1.0000    0.51850   0.05470   0.97900   Biso      1.000     C          -0.18085  
         C10       1.0000    0.01850   0.44530   0.52100   Biso      1.000     C          -0.18187899999999999          
         C11       1.0000    0.48150   0.55470   0.02100   Biso      1.000     C          -0.180273           
         C12       1.0000    0.01850   0.05470   0.52100   Biso      1.000     C          -0.180705           
         C13       1.0000    0.48150   0.94530   0.02100   Biso      1.000     C          -0.181238           
         C14       1.0000    0.98150   0.55470   0.47900   Biso      1.000     C          -0.181058           
         C15       1.0000    0.98150   0.94530   0.47900   Biso      1.000     C          -0.180427           
         C16       1.0000    0.28640   0.25000   0.71800   Biso      1.000     C          -0.25926  
         Cd1       1.0000    0.59360   0.25000   0.89560   Biso      1.000     Cd          0.704296  
         Cd2       1.0000    0.90640   0.75000   0.39560   Biso      1.000     Cd          0.7045399999999999  
         Cd3       1.0000    0.40640   0.75000   0.10440   Biso      1.000     Cd          0.704171  
         Cd4       1.0000    0.09360   0.25000   0.60440   Biso      1.000     Cd          0.70458 