
##########################################################################
#               Crystallographic Information Format file
#               Produced by PyCifRW module
#
#  This is a CIF file.  CIF has been adopted by the International
#  Union of Crystallography as the standard for data archiving and
#  transmission.
#
#  For information on this file format, follow the CIF links at
#  http://www.iucr.org
##########################################################################

data_image0

_cell_length_a                          7.3171
_cell_length_b                          15.2173
_cell_length_c                          35.757
_cell_angle_alpha                       98.5021
_cell_angle_beta                        90
_cell_angle_gamma                       103.911
_symmetry_space_group_name_H-M          'P 1'
_symmetry_int_tables_number             1
loop_
  _symmetry_equiv_pos_as_xyz
         'x, y, z' 
loop_
  _atom_site_label
  _atom_site_occupancy
  _atom_site_fract_x
  _atom_site_fract_y
  _atom_site_fract_z
  _atom_site_thermal_displace_type
  _atom_site_B_iso_or_equiv
  _atom_site_type_symbol
  _atom_site_charge
         C1        1.0000    0.68994   0.55728   0.96293   Biso      1.000     C          -0.218582           
         C2        1.0000    0.04309   0.70438   0.85038   Biso      1.000     C          -0.173692           
         C3        1.0000    0.89710   0.16180   0.10249   Biso      1.000     C          -0.227478           
         C4        1.0000    0.86780   0.90840   0.30173   Biso      1.000     C          0.613824  
         C5        1.0000    0.61586   0.70232   0.64304   Biso      1.000     C          -0.265533           
         C6        1.0000    0.27439   0.50198   0.01316   Biso      1.000     C          0.279562  
         C7        1.0000    0.43259   0.39318   0.87955   Biso      1.000     C          0.578361  
         C8        1.0000    0.26518   0.59616   0.52469   Biso      1.000     C          -0.207537           
         C9        1.0000    0.53669   0.42918   0.91679   Biso      1.000     C          -0.047854           
         C10       1.0000    0.98940   0.54300   0.11143   Biso      1.000     C          0.484471  
         C11       1.0000    0.66902   0.40384   0.97531   Biso      1.000     C          -0.208739           
         C12       1.0000    0.08105   0.74370   0.88808   Biso      1.000     C          0.288202  
         C13       1.0000    0.13390   0.49240   0.94791   Biso      1.000     C          0.568059  
         C14       1.0000    0.10751   0.57082   0.58321   Biso      1.000     C          -0.046342           
         C15       1.0000    0.20030   0.14800   0.66786   Biso      1.000     C          -0.071321           
         C16       1.0000    0.08153   0.51686   0.19756   Biso      1.000     C          0.633492  
         C17       1.0000    0.79494   0.37088   0.44031   Biso      1.000     C          -0.08964  
         C18       1.0000    0.56741   0.60682   0.12045   Biso      1.000     C          0.578361  
         C19       1.0000    0.07273   0.47666   0.57151   Biso      1.000     C          -0.079785           
         C20       1.0000    0.09269   0.60358   0.91643   Biso      1.000     C          0.560873  
         C21       1.0000    0.44640   0.45700   0.38857   Biso      1.000     C          0.482916  
         C22       1.0000    0.73482   0.40384   0.47531   Biso      1.000     C          -0.207537           
         C23       1.0000    0.86610   0.50760   0.05209   Biso      1.000     C          0.568059  
         C24       1.0000    0.66265   0.74370   0.38808   Biso      1.000     C          0.288442  
         C25       1.0000    0.48911   0.39642   0.58357   Biso      1.000     C          0.561748  
         C26       1.0000    0.08646   0.70232   0.14304   Biso      1.000     C          -0.266826           
         C27       1.0000    0.00939   0.75138   0.17742   Biso      1.000     C          0.67011   
         C28       1.0000    0.73036   0.75812   0.32303   Biso      1.000     C          -0.050132           
         C29       1.0000    0.17879   0.57698   0.16965   Biso      1.000     C          -0.288645           
         C30       1.0000    0.57594   0.37088   0.94031   Biso      1.000     C          -0.086975           
         C31       1.0000    0.90950   0.10880   0.13021   Biso      1.000     C          -0.084114           
         C32       1.0000    0.10290   0.83820   0.89751   Biso      1.000     C          -0.227478           
         C33       1.0000    0.13266   0.44272   0.53707   Biso      1.000     C          -0.219326           
         C34       1.0000    0.43533   0.51686   0.69756   Biso      1.000     C          0.631341  
         C35       1.0000    0.86734   0.55728   0.46293   Biso      1.000     C          -0.21933  
         C36       1.0000    0.94770   0.14800   0.16786   Biso      1.000     C          -0.071177           
         C37       1.0000    0.91847   0.48314   0.80244   Biso      1.000     C          0.633492  
         C38       1.0000    0.51089   0.60358   0.41643   Biso      1.000     C          0.561748  
         C39       1.0000    0.33098   0.59616   0.02469   Biso      1.000     C          -0.208739           
         C40       1.0000    0.35850   0.49240   0.44791   Biso      1.000     C          0.567022  
         C41       1.0000    0.64150   0.50760   0.55209   Biso      1.000     C          0.567022  
         C42       1.0000    0.99061   0.24862   0.82258   Biso      1.000     C          0.67011   
         C43       1.0000    0.59607   0.52334   0.92849   Biso      1.000     C          -0.081245           
         C44       1.0000    0.96059   0.39318   0.37955   Biso      1.000     C          0.57827   
         C45       1.0000    0.05230   0.85200   0.83214   Biso      1.000     C          -0.071178           
         C46       1.0000    0.01060   0.45700   0.88857   Biso      1.000     C          0.484471  
         C47       1.0000    0.56467   0.48314   0.30244   Biso      1.000     C          0.631341  
         C48       1.0000    0.04060   0.90840   0.80173   Biso      1.000     C          0.613891  
         C49       1.0000    0.22759   0.50198   0.51316   Biso      1.000     C          0.278508  
         C50       1.0000    0.40393   0.47666   0.07151   Biso      1.000     C          -0.081248           
         C51       1.0000    0.31006   0.44272   0.03707   Biso      1.000     C          -0.218578           
         C52       1.0000    0.90731   0.39642   0.08357   Biso      1.000     C          0.560873  
         C53       1.0000    0.60181   0.42302   0.33035   Biso      1.000     C          -0.285709           
         C54       1.0000    0.79970   0.85200   0.33214   Biso      1.000     C          -0.07132  
         C55       1.0000    0.20506   0.62912   0.55969   Biso      1.000     C          -0.08964  
         C56       1.0000    0.55360   0.54300   0.61143   Biso      1.000     C          0.482916  
         C57       1.0000    0.33871   0.29562   0.64962   Biso      1.000     C          -0.173695           
         C58       1.0000    0.39819   0.57698   0.66965   Biso      1.000     C          -0.285709           
         C59       1.0000    0.13220   0.09160   0.69827   Biso      1.000     C          0.613825  
         C60       1.0000    0.97224   0.24188   0.17697   Biso      1.000     C          -0.052066           
         C61       1.0000    0.46331   0.57082   0.08321   Biso      1.000     C          -0.047854           
         C62       1.0000    0.73530   0.83820   0.39751   Biso      1.000     C          -0.230268           
         C63       1.0000    0.80070   0.89120   0.36979   Biso      1.000     C          -0.094906           
         C64       1.0000    0.91895   0.25630   0.11192   Biso      1.000     C          0.288202  
         C65       1.0000    0.82121   0.42302   0.83035   Biso      1.000     C          -0.288645           
         C66       1.0000    0.89249   0.42918   0.41679   Biso      1.000     C          -0.046343           
         C67       1.0000    0.26470   0.16180   0.60249   Biso      1.000     C          -0.230269           
         C68       1.0000    0.33735   0.25630   0.61192   Biso      1.000     C          0.288443  
         C69       1.0000    0.95691   0.29562   0.14962   Biso      1.000     C          -0.173691           
         C70       1.0000    0.03941   0.60682   0.62045   Biso      1.000     C          0.57827   
         C71       1.0000    0.66129   0.70438   0.35038   Biso      1.000     C          -0.173694           
         C72       1.0000    0.42406   0.62912   0.05969   Biso      1.000     C          -0.086976           
         C73       1.0000    0.92727   0.52334   0.42849   Biso      1.000     C          -0.079781           
         C74       1.0000    0.02776   0.75812   0.82303   Biso      1.000     C          -0.052066           
         C75       1.0000    0.72561   0.49802   0.98684   Biso      1.000     C          0.279562  
         C76       1.0000    0.95940   0.09160   0.19827   Biso      1.000     C          0.613891  
         C77       1.0000    0.77241   0.49802   0.48684   Biso      1.000     C          0.278508  
         C78       1.0000    0.74199   0.75138   0.67742   Biso      1.000     C          0.669396  
         C79       1.0000    0.19930   0.10880   0.63021   Biso      1.000     C          -0.094906           
         C80       1.0000    0.26964   0.24188   0.67697   Biso      1.000     C          -0.050131           
         C81       1.0000    0.91354   0.29768   0.85696   Biso      1.000     C          -0.266826           
         C82       1.0000    0.09050   0.89120   0.86979   Biso      1.000     C          -0.084113           
         C83       1.0000    0.25801   0.24862   0.32258   Biso      1.000     C          0.669396  
         C84       1.0000    0.38414   0.29768   0.35696   Biso      1.000     C          -0.265533           
         H1        1.0000    0.58900   0.72840   0.43920   Biso      1.000     H          0.30495   
         H2        1.0000    0.67040   0.36360   0.49080   Biso      1.000     H          0.11914   
         H3        1.0000    0.73960   0.86560   0.42260   Biso      1.000     H          0.125806  
         H4        1.0000    0.10980   0.37980   0.52960   Biso      1.000     H          0.12228   
         H5        1.0000    0.02620   0.71160   0.12030   Biso      1.000     H          0.161319  
         H6        1.0000    0.57220   0.56360   0.91300   Biso      1.000     H          0.125489  
         H7        1.0000    0.15260   0.40000   0.97620   Biso      1.000     H          0.306504  
         H8        1.0000    0.89200   0.04580   0.12350   Biso      1.000     H          0.11939   
         H9        1.0000    0.27000   0.37980   0.02960   Biso      1.000     H          0.122111  
         H10       1.0000    0.32960   0.63640   0.50920   Biso      1.000     H          0.11914   
         H11       1.0000    0.73020   0.73060   0.29800   Biso      1.000     H          0.129269  
         H12       1.0000    0.50840   0.72900   0.64210   Biso      1.000     H          0.149215  
         H13       1.0000    0.68540   0.71160   0.62030   Biso      1.000     H          0.160937  
         H14       1.0000    0.75260   0.60000   0.52380   Biso      1.000     H          0.307044  
         H15       1.0000    0.99960   0.26940   0.20200   Biso      1.000     H          0.129667  
         H16       1.0000    0.26980   0.26940   0.70200   Biso      1.000     H          0.129269  
         H17       1.0000    0.61370   0.64160   0.34350   Biso      1.000     H          0.131949  
         H18       1.0000    0.12600   0.86560   0.92260   Biso      1.000     H          0.124694  
         H19       1.0000    0.22060   0.72900   0.14210   Biso      1.000     H          0.149136  
         H20       1.0000    0.97210   0.35840   0.15650   Biso      1.000     H          0.132754  
         H21       1.0000    0.38630   0.35840   0.65650   Biso      1.000     H          0.131949  
         H22       1.0000    0.99140   0.56360   0.41300   Biso      1.000     H          0.124308  
         H23       1.0000    0.37230   0.63180   0.68380   Biso      1.000     H          0.140819  
         H24       1.0000    0.26040   0.13440   0.57740   Biso      1.000     H          0.125806  
         H25       1.0000    0.49160   0.27100   0.35790   Biso      1.000     H          0.149215  
         H26       1.0000    0.00040   0.73060   0.79800   Biso      1.000     H          0.129667  
         H27       1.0000    0.41100   0.27160   0.56080   Biso      1.000     H          0.30495   
         H28       1.0000    0.76900   0.30800   0.43250   Biso      1.000     H          0.114257  
         H29       1.0000    0.25940   0.54460   0.15460   Biso      1.000     H          0.132057  
         H30       1.0000    0.74060   0.45540   0.84540   Biso      1.000     H          0.132057  
         H31       1.0000    0.42780   0.43640   0.08700   Biso      1.000     H          0.125489  
         H32       1.0000    0.62770   0.36820   0.31620   Biso      1.000     H          0.140819  
         H33       1.0000    0.84740   0.60000   0.02380   Biso      1.000     H          0.306503  
         H34       1.0000    0.02790   0.64160   0.84350   Biso      1.000     H          0.132754  
         H35       1.0000    0.00860   0.43640   0.58700   Biso      1.000     H          0.124309  
         H36       1.0000    0.69320   0.36360   0.99080   Biso      1.000     H          0.119049  
         H37       1.0000    0.28520   0.54460   0.65460   Biso      1.000     H          0.131076  
         H38       1.0000    0.97380   0.28840   0.87970   Biso      1.000     H          0.161319  
         H39       1.0000    0.25950   0.63180   0.18380   Biso      1.000     H          0.141647  
         H40       1.0000    0.77940   0.27100   0.85790   Biso      1.000     H          0.149136  
         H41       1.0000    0.46100   0.69200   0.06750   Biso      1.000     H          0.113248  
         H42       1.0000    0.86060   0.27160   0.06080   Biso      1.000     H          0.305073  
         H43       1.0000    0.89020   0.62020   0.47040   Biso      1.000     H          0.122281  
         H44       1.0000    0.23100   0.69200   0.56750   Biso      1.000     H          0.114257  
         H45       1.0000    0.73000   0.62020   0.97040   Biso      1.000     H          0.122111  
         H46       1.0000    0.31460   0.28840   0.37970   Biso      1.000     H          0.160937  
         H47       1.0000    0.84620   0.95420   0.37650   Biso      1.000     H          0.132168  
         H48       1.0000    0.87400   0.13440   0.07740   Biso      1.000     H          0.124694  
         H49       1.0000    0.13940   0.72840   0.93920   Biso      1.000     H          0.305073  
         H50       1.0000    0.10800   0.95420   0.87650   Biso      1.000     H          0.11939   
         H51       1.0000    0.24740   0.40000   0.47620   Biso      1.000     H          0.307044  
         H52       1.0000    0.71480   0.45540   0.34540   Biso      1.000     H          0.131077  
         H53       1.0000    0.30680   0.63640   0.00920   Biso      1.000     H          0.119049  
         H54       1.0000    0.74050   0.36820   0.81620   Biso      1.000     H          0.141647  
         H55       1.0000    0.15380   0.04580   0.62350   Biso      1.000     H          0.132168  
         H56       1.0000    0.53900   0.30800   0.93250   Biso      1.000     H          0.113248  
         N1        1.0000    0.81681   0.54122   0.02145   Biso      1.000     N          -0.414688           
         N2        1.0000    0.01883   0.54526   0.88567   Biso      1.000     N          -0.490679           
         N3        1.0000    0.10828   0.69536   0.91741   Biso      1.000     N          -0.413733           
         N4        1.0000    0.47357   0.45474   0.61433   Biso      1.000     N          -0.490665           
         N5        1.0000    0.54931   0.60482   0.64381   Biso      1.000     N          -0.110085           
         N6        1.0000    0.89172   0.30464   0.08259   Biso      1.000     N          -0.413733           
         N7        1.0000    0.63732   0.57404   0.58155   Biso      1.000     N          -0.538873           
         N8        1.0000    0.18319   0.45878   0.97855   Biso      1.000     N          -0.414688           
         N9        1.0000    0.57259   0.41778   0.55142   Biso      1.000     N          -0.553011           
         N10       1.0000    0.84519   0.41778   0.05142   Biso      1.000     N          -0.553631           
         N11       1.0000    0.58708   0.69536   0.41741   Biso      1.000     N          -0.414177           
         N12       1.0000    0.98117   0.45474   0.11433   Biso      1.000     N          -0.490679           
         N13       1.0000    0.45069   0.39518   0.35619   Biso      1.000     N          -0.110085           
         N14       1.0000    0.42741   0.58222   0.44858   Biso      1.000     N          -0.553011           
         N15       1.0000    0.15481   0.58222   0.94858   Biso      1.000     N          -0.553631           
         N16       1.0000    0.72441   0.54122   0.52145   Biso      1.000     N          -0.414861           
         N17       1.0000    0.41292   0.30464   0.58259   Biso      1.000     N          -0.414177           
         N18       1.0000    0.93672   0.57404   0.08155   Biso      1.000     N          -0.540075           
         N19       1.0000    0.52643   0.54526   0.38567   Biso      1.000     N          -0.490665           
         N20       1.0000    0.06328   0.42596   0.91845   Biso      1.000     N          -0.540075           
         N21       1.0000    0.36268   0.42596   0.41845   Biso      1.000     N          -0.538873           
         N22       1.0000    0.94449   0.39518   0.85619   Biso      1.000     N          -0.109345           
         N23       1.0000    0.05551   0.60482   0.14381   Biso      1.000     N          -0.109345           
         N24       1.0000    0.27559   0.45878   0.47855   Biso      1.000     N          -0.414861           
         O1        1.0000    0.90660   0.50520   0.20251   Biso      1.000     O          -0.583304           
         O2        1.0000    0.21992   0.16184   0.31762   Biso      1.000     O          -0.541525           
         O3        1.0000    0.92960   0.00580   0.18823   Biso      1.000     O          -0.536342           
         O4        1.0000    0.60019   0.54558   0.13884   Biso      1.000     O          -0.579234           
         O5        1.0000    0.39981   0.45442   0.86116   Biso      1.000     O          -0.579234           
         O6        1.0000    0.61394   0.69008   0.13208   Biso      1.000     O          -0.589684           
         O7        1.0000    0.40140   0.49480   0.29749   Biso      1.000     O          -0.581713           
         O8        1.0000    0.07040   0.99420   0.81177   Biso      1.000     O          -0.536343           
         O9        1.0000    0.94192   0.16184   0.81762   Biso      1.000     O          -0.54192  
         O10       1.0000    0.59860   0.50520   0.70251   Biso      1.000     O          -0.581713           
         O11       1.0000    0.80715   0.70810   0.69897   Biso      1.000     O          -0.558722           
         O12       1.0000    0.29647   0.48134   0.71514   Biso      1.000     O          -0.558579           
         O13       1.0000    0.38606   0.30992   0.86792   Biso      1.000     O          -0.589684           
         O14       1.0000    0.70353   0.51866   0.28486   Biso      1.000     O          -0.558579           
         O15       1.0000    0.90095   0.70810   0.19897   Biso      1.000     O          -0.559072           
         O16       1.0000    0.09340   0.49480   0.79749   Biso      1.000     O          -0.583304           
         O17       1.0000    0.09905   0.29190   0.80103   Biso      1.000     O          -0.559072           
         O18       1.0000    0.13566   0.13352   0.73149   Biso      1.000     O          -0.540526           
         O19       1.0000    0.86434   0.86648   0.26851   Biso      1.000     O          -0.540526           
         O20       1.0000    0.05461   0.45442   0.36116   Biso      1.000     O          -0.57856  
         O21       1.0000    0.05808   0.83816   0.18238   Biso      1.000     O          -0.54192  
         O22       1.0000    0.92380   0.99420   0.31177   Biso      1.000     O          -0.538    
         O23       1.0000    0.94539   0.54558   0.63884   Biso      1.000     O          -0.57856  
         O24       1.0000    0.07620   0.00580   0.68823   Biso      1.000     O          -0.538    
         O25       1.0000    0.81513   0.51866   0.78486   Biso      1.000     O          -0.558454           
         O26       1.0000    0.92386   0.30992   0.36792   Biso      1.000     O          -0.590088           
         O27       1.0000    0.00214   0.86648   0.76851   Biso      1.000     O          -0.540603           
         O28       1.0000    0.19285   0.29190   0.30103   Biso      1.000     O          -0.558723           
         O29       1.0000    0.78008   0.83816   0.68238   Biso      1.000     O          -0.541525           
         O30       1.0000    0.99786   0.13352   0.23149   Biso      1.000     O          -0.540603           
         O31       1.0000    0.18487   0.48134   0.21514   Biso      1.000     O          -0.558454           
         O32       1.0000    0.07614   0.69008   0.63208   Biso      1.000     O          -0.590088           
         Zn1       1.0000    0.17181   0.41936   0.31534   Biso      1.000     Zn          1.011209  
         Zn2       1.0000    0.24755   0.41936   0.81534   Biso      1.000     Zn          1.011319  
         Zn3       1.0000    0.89743   0.90470   0.21846   Biso      1.000     Zn          0.947689  
         Zn4       1.0000    0.99273   0.09530   0.28154   Biso      1.000     Zn          0.947671  
         Zn5       1.0000    0.00727   0.90470   0.71846   Biso      1.000     Zn          0.947671  
         Zn6       1.0000    0.82819   0.58064   0.68466   Biso      1.000     Zn          1.011208  
         Zn7       1.0000    0.75245   0.58064   0.18466   Biso      1.000     Zn          1.011319  
         Zn8       1.0000    0.10257   0.09530   0.78154   Biso      1.000     Zn          0.947689 